<?xml version="1.0" encoding="UTF-8"?>

<additional xmlns:xsi="http://www.w3.org/2001/XMLSchema-instance" xsi:noNamespaceSchemaLocation="http://sumo.dlr.de/xsd/additional_file.xsd"><poly id="b0" type="building" color="90,102,171" fill="1" layer="-1.00" shape="105,105 495,105 495,495 105,495 105,105"/>
<poly id="b1" type="building" color="90,102,171" fill="1" layer="-1.00" shape="505,105 895,105 895,495 505,495 505,105"/>
<poly id="b2" type="building" color="90,102,171" fill="1" layer="-1.00" shape="905,105 1295,105 1295,495 905,495 905,105"/>
<poly id="b3" type="building" color="90,102,171" fill="1" layer="-1.00" shape="1305,105 1695,105 1695,495 1305,495 1305,105"/>
<poly id="b4" type="building" color="90,102,171" fill="1" layer="-1.00" shape="1705,105 2095,105 2095,495 1705,495 1705,105"/>
<poly id="b5" type="building" color="90,102,171" fill="1" layer="-1.00" shape="2105,105 2495,105 2495,495 2105,495 2105,105"/>
<poly id="b6" type="building" color="90,102,171" fill="1" layer="-1.00" shape="105,505 495,505 495,895 105,895 105,505"/>
<poly id="b7" type="building" color="90,102,171" fill="1" layer="-1.00" shape="505,505 895,505 895,895 505,895 505,505"/>
<poly id="b8" type="building" color="90,102,171" fill="1" layer="-1.00" shape="905,505 1295,505 1295,895 905,895 905,505"/>
<poly id="b9" type="building" color="90,102,171" fill="1" layer="-1.00" shape="1305,505 1695,505 1695,895 1305,895 1305,505"/>
<poly id="b10" type="building" color="90,102,171" fill="1" layer="-1.00" shape="1705,505 2095,505 2095,895 1705,895 1705,505"/>
<poly id="b11" type="building" color="90,102,171" fill="1" layer="-1.00" shape="2105,505 2495,505 2495,895 2105,895 2105,505"/>
<poly id="b12" type="building" color="90,102,171" fill="1" layer="-1.00" shape="105,905 495,905 495,1295 105,1295 105,905"/>
<poly id="b13" type="building" color="90,102,171" fill="1" layer="-1.00" shape="505,905 895,905 895,1295 505,1295 505,905"/>
<poly id="b14" type="building" color="90,102,171" fill="1" layer="-1.00" shape="905,905 1295,905 1295,1295 905,1295 905,905"/>
<poly id="b15" type="building" color="90,102,171" fill="1" layer="-1.00" shape="1305,905 1695,905 1695,1295 1305,1295 1305,905"/>
<poly id="b16" type="building" color="90,102,171" fill="1" layer="-1.00" shape="1705,905 2095,905 2095,1295 1705,1295 1705,905"/>
<poly id="b17" type="building" color="90,102,171" fill="1" layer="-1.00" shape="2105,905 2495,905 2495,1295 2105,1295 2105,905"/>
<poly id="b18" type="building" color="90,102,171" fill="1" layer="-1.00" shape="105,1305 495,1305 495,1695 105,1695 105,1305"/>
<poly id="b19" type="building" color="90,102,171" fill="1" layer="-1.00" shape="505,1305 895,1305 895,1695 505,1695 505,1305"/>
<poly id="b20" type="building" color="90,102,171" fill="1" layer="-1.00" shape="905,1305 1295,1305 1295,1695 905,1695 905,1305"/>
<poly id="b21" type="building" color="90,102,171" fill="1" layer="-1.00" shape="1305,1305 1695,1305 1695,1695 1305,1695 1305,1305"/>
<poly id="b22" type="building" color="90,102,171" fill="1" layer="-1.00" shape="1705,1305 2095,1305 2095,1695 1705,1695 1705,1305"/>
<poly id="b23" type="building" color="90,102,171" fill="1" layer="-1.00" shape="2105,1305 2495,1305 2495,1695 2105,1695 2105,1305"/>
<poly id="b24" type="building" color="90,102,171" fill="1" layer="-1.00" shape="105,1705 495,1705 495,2095 105,2095 105,1705"/>
<poly id="b25" type="building" color="90,102,171" fill="1" layer="-1.00" shape="505,1705 895,1705 895,2095 505,2095 505,1705"/>
<poly id="b26" type="building" color="90,102,171" fill="1" layer="-1.00" shape="905,1705 1295,1705 1295,2095 905,2095 905,1705"/>
<poly id="b27" type="building" color="90,102,171" fill="1" layer="-1.00" shape="1305,1705 1695,1705 1695,2095 1305,2095 1305,1705"/>
<poly id="b28" type="building" color="90,102,171" fill="1" layer="-1.00" shape="1705,1705 2095,1705 2095,2095 1705,2095 1705,1705"/>
<poly id="b29" type="building" color="90,102,171" fill="1" layer="-1.00" shape="2105,1705 2495,1705 2495,2095 2105,2095 2105,1705"/>
<poly id="b30" type="building" color="90,102,171" fill="1" layer="-1.00" shape="105,2105 495,2105 495,2495 105,2495 105,2105"/>
<poly id="b31" type="building" color="90,102,171" fill="1" layer="-1.00" shape="505,2105 895,2105 895,2495 505,2495 505,2105"/>
<poly id="b32" type="building" color="90,102,171" fill="1" layer="-1.00" shape="905,2105 1295,2105 1295,2495 905,2495 905,2105"/>
<poly id="b33" type="building" color="90,102,171" fill="1" layer="-1.00" shape="1305,2105 1695,2105 1695,2495 1305,2495 1305,2105"/>
<poly id="b34" type="building" color="90,102,171" fill="1" layer="-1.00" shape="1705,2105 2095,2105 2095,2495 1705,2495 1705,2105"/>
<poly id="b35" type="building" color="90,102,171" fill="1" layer="-1.00" shape="2105,2105 2495,2105 2495,2495 2105,2495 2105,2105"/>
</additional>