<?xml version="1.0" encoding="UTF-8"?>

<additional xmlns:xsi="http://www.w3.org/2001/XMLSchema-instance" xsi:noNamespaceSchemaLocation="http://sumo.dlr.de/xsd/additional_file.xsd"><poly id="b0" type="building" color="90,102,171" fill="1" layer="-1.00" shape="105,105 395,105 395,395 105,395 105,105"/>
<poly id="b1" type="building" color="90,102,171" fill="1" layer="-1.00" shape="405,105 695,105 695,395 405,395 405,105"/>
<poly id="b2" type="building" color="90,102,171" fill="1" layer="-1.00" shape="705,105 995,105 995,395 705,395 705,105"/>
<poly id="b3" type="building" color="90,102,171" fill="1" layer="-1.00" shape="1005,105 1295,105 1295,395 1005,395 1005,105"/>
<poly id="b4" type="building" color="90,102,171" fill="1" layer="-1.00" shape="1305,105 1595,105 1595,395 1305,395 1305,105"/>
<poly id="b5" type="building" color="90,102,171" fill="1" layer="-1.00" shape="1605,105 1895,105 1895,395 1605,395 1605,105"/>
<poly id="b6" type="building" color="90,102,171" fill="1" layer="-1.00" shape="1905,105 2195,105 2195,395 1905,395 1905,105"/>
<poly id="b7" type="building" color="90,102,171" fill="1" layer="-1.00" shape="2205,105 2495,105 2495,395 2205,395 2205,105"/>
<poly id="b8" type="building" color="90,102,171" fill="1" layer="-1.00" shape="105,405 395,405 395,695 105,695 105,405"/>
<poly id="b9" type="building" color="90,102,171" fill="1" layer="-1.00" shape="405,405 695,405 695,695 405,695 405,405"/>
<poly id="b10" type="building" color="90,102,171" fill="1" layer="-1.00" shape="705,405 995,405 995,695 705,695 705,405"/>
<poly id="b11" type="building" color="90,102,171" fill="1" layer="-1.00" shape="1005,405 1295,405 1295,695 1005,695 1005,405"/>
<poly id="b12" type="building" color="90,102,171" fill="1" layer="-1.00" shape="1305,405 1595,405 1595,695 1305,695 1305,405"/>
<poly id="b13" type="building" color="90,102,171" fill="1" layer="-1.00" shape="1605,405 1895,405 1895,695 1605,695 1605,405"/>
<poly id="b14" type="building" color="90,102,171" fill="1" layer="-1.00" shape="1905,405 2195,405 2195,695 1905,695 1905,405"/>
<poly id="b15" type="building" color="90,102,171" fill="1" layer="-1.00" shape="2205,405 2495,405 2495,695 2205,695 2205,405"/>
<poly id="b16" type="building" color="90,102,171" fill="1" layer="-1.00" shape="105,705 395,705 395,995 105,995 105,705"/>
<poly id="b17" type="building" color="90,102,171" fill="1" layer="-1.00" shape="405,705 695,705 695,995 405,995 405,705"/>
<poly id="b18" type="building" color="90,102,171" fill="1" layer="-1.00" shape="705,705 995,705 995,995 705,995 705,705"/>
<poly id="b19" type="building" color="90,102,171" fill="1" layer="-1.00" shape="1005,705 1295,705 1295,995 1005,995 1005,705"/>
<poly id="b20" type="building" color="90,102,171" fill="1" layer="-1.00" shape="1305,705 1595,705 1595,995 1305,995 1305,705"/>
<poly id="b21" type="building" color="90,102,171" fill="1" layer="-1.00" shape="1605,705 1895,705 1895,995 1605,995 1605,705"/>
<poly id="b22" type="building" color="90,102,171" fill="1" layer="-1.00" shape="1905,705 2195,705 2195,995 1905,995 1905,705"/>
<poly id="b23" type="building" color="90,102,171" fill="1" layer="-1.00" shape="2205,705 2495,705 2495,995 2205,995 2205,705"/>
<poly id="b24" type="building" color="90,102,171" fill="1" layer="-1.00" shape="105,1005 395,1005 395,1295 105,1295 105,1005"/>
<poly id="b25" type="building" color="90,102,171" fill="1" layer="-1.00" shape="405,1005 695,1005 695,1295 405,1295 405,1005"/>
<poly id="b26" type="building" color="90,102,171" fill="1" layer="-1.00" shape="705,1005 995,1005 995,1295 705,1295 705,1005"/>
<poly id="b27" type="building" color="90,102,171" fill="1" layer="-1.00" shape="1005,1005 1295,1005 1295,1295 1005,1295 1005,1005"/>
<poly id="b28" type="building" color="90,102,171" fill="1" layer="-1.00" shape="1305,1005 1595,1005 1595,1295 1305,1295 1305,1005"/>
<poly id="b29" type="building" color="90,102,171" fill="1" layer="-1.00" shape="1605,1005 1895,1005 1895,1295 1605,1295 1605,1005"/>
<poly id="b30" type="building" color="90,102,171" fill="1" layer="-1.00" shape="1905,1005 2195,1005 2195,1295 1905,1295 1905,1005"/>
<poly id="b31" type="building" color="90,102,171" fill="1" layer="-1.00" shape="2205,1005 2495,1005 2495,1295 2205,1295 2205,1005"/>
<poly id="b32" type="building" color="90,102,171" fill="1" layer="-1.00" shape="105,1305 395,1305 395,1595 105,1595 105,1305"/>
<poly id="b33" type="building" color="90,102,171" fill="1" layer="-1.00" shape="405,1305 695,1305 695,1595 405,1595 405,1305"/>
<poly id="b34" type="building" color="90,102,171" fill="1" layer="-1.00" shape="705,1305 995,1305 995,1595 705,1595 705,1305"/>
<poly id="b35" type="building" color="90,102,171" fill="1" layer="-1.00" shape="1005,1305 1295,1305 1295,1595 1005,1595 1005,1305"/>
<poly id="b36" type="building" color="90,102,171" fill="1" layer="-1.00" shape="1305,1305 1595,1305 1595,1595 1305,1595 1305,1305"/>
<poly id="b37" type="building" color="90,102,171" fill="1" layer="-1.00" shape="1605,1305 1895,1305 1895,1595 1605,1595 1605,1305"/>
<poly id="b38" type="building" color="90,102,171" fill="1" layer="-1.00" shape="1905,1305 2195,1305 2195,1595 1905,1595 1905,1305"/>
<poly id="b39" type="building" color="90,102,171" fill="1" layer="-1.00" shape="2205,1305 2495,1305 2495,1595 2205,1595 2205,1305"/>
<poly id="b40" type="building" color="90,102,171" fill="1" layer="-1.00" shape="105,1605 395,1605 395,1895 105,1895 105,1605"/>
<poly id="b41" type="building" color="90,102,171" fill="1" layer="-1.00" shape="405,1605 695,1605 695,1895 405,1895 405,1605"/>
<poly id="b42" type="building" color="90,102,171" fill="1" layer="-1.00" shape="705,1605 995,1605 995,1895 705,1895 705,1605"/>
<poly id="b43" type="building" color="90,102,171" fill="1" layer="-1.00" shape="1005,1605 1295,1605 1295,1895 1005,1895 1005,1605"/>
<poly id="b44" type="building" color="90,102,171" fill="1" layer="-1.00" shape="1305,1605 1595,1605 1595,1895 1305,1895 1305,1605"/>
<poly id="b45" type="building" color="90,102,171" fill="1" layer="-1.00" shape="1605,1605 1895,1605 1895,1895 1605,1895 1605,1605"/>
<poly id="b46" type="building" color="90,102,171" fill="1" layer="-1.00" shape="1905,1605 2195,1605 2195,1895 1905,1895 1905,1605"/>
<poly id="b47" type="building" color="90,102,171" fill="1" layer="-1.00" shape="2205,1605 2495,1605 2495,1895 2205,1895 2205,1605"/>
<poly id="b48" type="building" color="90,102,171" fill="1" layer="-1.00" shape="105,1905 395,1905 395,2195 105,2195 105,1905"/>
<poly id="b49" type="building" color="90,102,171" fill="1" layer="-1.00" shape="405,1905 695,1905 695,2195 405,2195 405,1905"/>
<poly id="b50" type="building" color="90,102,171" fill="1" layer="-1.00" shape="705,1905 995,1905 995,2195 705,2195 705,1905"/>
<poly id="b51" type="building" color="90,102,171" fill="1" layer="-1.00" shape="1005,1905 1295,1905 1295,2195 1005,2195 1005,1905"/>
<poly id="b52" type="building" color="90,102,171" fill="1" layer="-1.00" shape="1305,1905 1595,1905 1595,2195 1305,2195 1305,1905"/>
<poly id="b53" type="building" color="90,102,171" fill="1" layer="-1.00" shape="1605,1905 1895,1905 1895,2195 1605,2195 1605,1905"/>
<poly id="b54" type="building" color="90,102,171" fill="1" layer="-1.00" shape="1905,1905 2195,1905 2195,2195 1905,2195 1905,1905"/>
<poly id="b55" type="building" color="90,102,171" fill="1" layer="-1.00" shape="2205,1905 2495,1905 2495,2195 2205,2195 2205,1905"/>
<poly id="b56" type="building" color="90,102,171" fill="1" layer="-1.00" shape="105,2205 395,2205 395,2495 105,2495 105,2205"/>
<poly id="b57" type="building" color="90,102,171" fill="1" layer="-1.00" shape="405,2205 695,2205 695,2495 405,2495 405,2205"/>
<poly id="b58" type="building" color="90,102,171" fill="1" layer="-1.00" shape="705,2205 995,2205 995,2495 705,2495 705,2205"/>
<poly id="b59" type="building" color="90,102,171" fill="1" layer="-1.00" shape="1005,2205 1295,2205 1295,2495 1005,2495 1005,2205"/>
<poly id="b60" type="building" color="90,102,171" fill="1" layer="-1.00" shape="1305,2205 1595,2205 1595,2495 1305,2495 1305,2205"/>
<poly id="b61" type="building" color="90,102,171" fill="1" layer="-1.00" shape="1605,2205 1895,2205 1895,2495 1605,2495 1605,2205"/>
<poly id="b62" type="building" color="90,102,171" fill="1" layer="-1.00" shape="1905,2205 2195,2205 2195,2495 1905,2495 1905,2205"/>
<poly id="b63" type="building" color="90,102,171" fill="1" layer="-1.00" shape="2205,2205 2495,2205 2495,2495 2205,2495 2205,2205"/>
</additional>