<?xml version="1.0" encoding="UTF-8"?>

<!-- generated on Sat Dec  8 18:06:29 2018 by Eclipse SUMO duarouter Version 1.0.1
<configuration xmlns:xsi="http://www.w3.org/2001/XMLSchema-instance" xsi:noNamespaceSchemaLocation="http://sumo.dlr.de/xsd/duarouterConfiguration.xsd">

    <input>
        <net-file value="osm.net.xml"/>
        <route-files value="osm.passenger.trips.xml"/>
    </input>

    <output>
        <output-file value="osm.passenger.rou.xml"/>
        <alternatives-output value="osm.passenger.rou.alt.xml"/>
    </output>

    <time>
        <begin value="0"/>
        <end value="3600.0"/>
    </time>

    <report>
        <no-warnings value="true"/>
        <ignore-errors value="true"/>
        <no-step-log value="true"/>
    </report>

</configuration>
-->

<routes xmlns:xsi="http://www.w3.org/2001/XMLSchema-instance" xsi:noNamespaceSchemaLocation="http://sumo.dlr.de/xsd/routes_file.xsd">
    <vType id="passenger" vClass="passenger"/>
    <vehicle id="veh0" type="passenger" depart="0.00" departLane="best">
        <route edges="298026906#0 298026906#1 333369841 206451465 299132392#1 325818854 329612532#1 329612532#2 329612224 299396267#1 329774722 299397170 299605621 299605821 298912688 187103792#1 307098733 187103791 311690284 187111590#0 187111590#2 19801548#2 188046016#0 30826268#1 316092515 309155392 195407521 309147331#0 309147331#1 344594962 312357351 309479676 4611726 82649618#0 82649618#1 81112790#1 23851927#0 23851927#1 23851927#2 625843712 52328295#0 43156728#0 43156728#1 43156728#2 43156728#4 120675240#0 120675240#2 -4611696#4 -4611696#3 -43346200#4 15973619#0 15973619#1 15973619#2 -15973619#2"/>
    </vehicle>
    <vehicle id="veh1" type="passenger" depart="2.93" departLane="best">
        <route edges="-4615406#8 -4615406#7 -4615406#4 -4615406#2 -4615406#1 329612224 299396267#1 329774722 299397170 299605621 299605821 298912688 187103792#1 307098733 187103791 311690284 187111590#0 187111590#2 19801548#2 188046016#0 30826268#1 316092515 309155392 195407521 309147331#0 309147331#1 344594962 312357351 309479676 4611726 82649618#0 82649618#1 60333311#1 60333311#2 -4612968#3 -4612968#2"/>
    </vehicle>
    <vehicle id="veh2" type="passenger" depart="5.85" departLane="best">
        <route edges="344594962 312357351 309479676 4611726 82649618#0 82649618#1 156364566#1 60333309#0 60333309#1 24992424#0 24992424#3 4612961#0 4612961#2 344594966 344594965#0 344594965#1 156364562#1 312534044#3 246044823 -82652406 -43087099#1 -43087099#0 -165450001#6 31912630#0 31912630#1 31912630#2 31912630#3 31912630#4"/>
    </vehicle>
    <vehicle id="veh3" type="passenger" depart="8.78" departLane="best">
        <route edges="4615599#4 4615599#5 -4083446#3 -4083446#2 -4083446#0 -31912630#3 -31912630#2 -31912630#1 -31912630#0 -165450001#4 -165450001#3 23386522#0 23386522#1 23386522#2 -23386522#2"/>
    </vehicle>
    <vehicle id="veh4" type="passenger" depart="11.71" departLane="best">
        <route edges="156364570#2 -156364570#3 -156364570#1 -156364570#0 -387892378 -478396988 -370359204#1 -370359204#0 -316746323#2 -316746323#0 -84960595 183415643 46140378 46140382 30721660#1 30721660#2 30721660#3 30721660#4 30721660#5 437325047#0 437325047#2 437325047#3 437325047#5 560370523 437325048#0 -165415464#1"/>
    </vehicle>
    <vehicle id="veh5" type="passenger" depart="14.64" departLane="best">
        <route edges="-4396823 -437325048#1 -560370523 -437325047#5 -437325047#3 -437325047#2 -437325047#0 4610362#0 4610362#1 4610362#2 4610362#3 4610362#4 4610362#5 4610362#6 4610362#7 4610362#8 30721662#0 30721662#1 30721662#2 30721662#3 23809670#3 23809670#4 23809670#5 28016312#0 28016312#1 -156364570#3 -156364570#1 -156364570#0 25294728 234463931#1 234463931#2 234463931#3 234463931#4 234463931#5 234463928#1 188914559 23813206#0 23813206#1 23813206#2"/>
    </vehicle>
    <vehicle id="veh6" type="passenger" depart="17.56" departLane="best">
        <route edges="-147066248#3 147066248#3 147066248#4 147066248#5 147066248#6 147066248#7 147066248#8 -4611708#2 -4611713#0 -66071366#3 -66071366#1 -66071366#0 -389101365#4 -389101365#2 22972473#0 -4588219"/>
    </vehicle>
    <vehicle id="veh7" type="passenger" depart="20.49" departLane="best">
        <route edges="301241681#0 301241681#1 301241681#2 301241681#5 301241681#6 246052428 301167584#0 19002403#1 523630409 19002357#1 19002363#1 19002363#2 -55741054 -62363401 -234463928#0 -234463931#4 -234463931#3 -234463931#2 -234463931#1 -234463931#0 77348147 25294729#0 25294729#1"/>
    </vehicle>
    <vehicle id="veh8" type="passenger" depart="23.42" departLane="best">
        <route edges="-4412868 153698394#2 340498982#0 340498982#1 340498982#3 340498982#4 340498982#7 354528932 251884680 339201217#1 15971196#1 54048862#0 54048862#2 54048862#3 23013165#1 4611698#1 202156994#0 72157174#1 171826984#2 171826984#3 171826984#4 171826984#5 24913524#2 195401006 195401017#3 139877314#1 139877314#2 310357283#0 310357283#2 100405009#0 100405009#2 100405009#3 100405009#4 305093247#0 305093247#2 305093328#1 163368988#3 301733776 29177662#1 288406367 288584715#0 288584715#1 288584715#2 280667874 280667873 280939722#1 103360642#2 291270698 280669754 281750887#2 281751681 30825225 284757122 284729550#0 283283195#1 288404288"/>
    </vehicle>
    <vehicle id="veh9" type="passenger" depart="26.35" departLane="best">
        <route edges="4610610#2 -52328295#2 23851917#0 23851917#1 23851917#2 23851922#1 60333313 82654055#0 82654055#1 606078065 -128396189#2"/>
    </vehicle>
    <vehicle id="veh10" type="passenger" depart="29.27" departLane="best">
        <route edges="-48377469#0 48377469#0 48377469#1 48377469#2 4615405#8 4615405#9 4615405#10 4615405#11 4615406#4 4615406#7 4615406#8 4615406#9 4615406#10 182620302#1 182620302#2 40583888 335846074#0 335846074#1 335843118 19047393 334606648#0 4615492#1 333347376 333934676#1 333934676#2 281095736#1 281095736#2 281095736#3 281095736#4 281095736#5 284736594 282836232#2 30825182 4615594#0 284760972 284761029#0 -390545163 -31912630#10 -31912630#9 -31912630#8 -31912630#7 -31912630#5"/>
    </vehicle>
    <vehicle id="veh11" type="passenger" depart="32.20" departLane="best">
        <route edges="60333313 82654055#0 82654055#1 606078065 156364553#0 156364553#1 606078066#0 72157172 61583424#0 61583424#1 534588621#0 534588621#1 72157174#1 171826984#2 171826984#3 171826984#4 171826984#5 24913524#2 195401006 195401017#3 139877314#1 139877314#2 310357283#0 310357283#2 112128418#1"/>
    </vehicle>
    <vehicle id="veh12" type="passenger" depart="35.13" departLane="best">
        <route edges="-22954356#7 -22954356#6 -22954356#5 -22954356#4 -22954356#3 -22954356#2 -22954356#1 -22954356#0 23443935#0 23443935#1 23443935#2 18997847#2 25086766 25086767#0 25086767#1 25086767#2 25086767#3 156364559#1 156364559#2 156364559#3 156364559#4 156364559#6 156364559#7 -24992424#5 -24992424#2 4612964#0 4612964#1 606078065 156364553#0 156364553#1 606078066#0 72157172 61583424#0 61583424#1 534588621#0 534588621#1 4773465#1 4773465#2 4773465#3 490365295#1 -156364570#3 -156364570#1 -156364570#0 25294728 -234463931#0"/>
    </vehicle>
    <vehicle id="veh13" type="passenger" depart="38.06" departLane="best">
        <route edges="4615405#0 -4615405#0 -137954786 552963268#1 48377469#0 48377469#1 48377469#2 4615405#8 4615405#9 4615405#10 4615405#11 4615406#4 4615406#7 4615406#8 4615406#9 4615406#10 182620302#1 182620302#2 40583888 335846074#0 335846074#1 335843118 19047393 334606648#0 4615492#1 333347376 333934676#1 333934676#2 29052147#0 29052147#1 29052147#2 29052147#3"/>
    </vehicle>
    <vehicle id="veh14" type="passenger" depart="40.98" departLane="best">
        <route edges="4610607 -505475202#0 -43156728#1 -43156728#0 -52328295#2 23851917#0 23851917#1 23851917#2 23851922#1 23812656#0 23812656#2 286653195 60333309#0 60333309#1 24992424#0 24992424#3 4612961#0 4612961#2 344594966 344594965#0 344594965#1 156364562#1 312534044#3 246044823 -82652406 43087099#3"/>
    </vehicle>
    <vehicle id="veh15" type="passenger" depart="43.91" departLane="best">
        <route edges="23809678#4 -19002363#10 -19002363#6 -19002363#4 -19002363#3 -55741054 -62363401 -234463928#0 -234463931#4 -234463931#3 -234463931#2 -234463931#1 -234463931#0 77348147 156364570#1 156364570#2 156364556#1 202157002#1 202157002#2 -534588621#1 -534588621#0 606078071#0 606078071#3 328920970 61583424#0 61583424#1"/>
    </vehicle>
    <vehicle id="veh16" type="passenger" depart="46.84" departLane="best">
        <route edges="-82658674#2 82658674#2 82658674#3 24992424#3 4612961#0 4612961#2 344594966 344594965#0 344594965#1 31609650#1 31609650#2 31609650#3 31609650#4 31609650#5 31609650#6 31609650#7 31609650#8 31609650#10 370617120#0 4616518#1 4616518#2 4616518#3 4616518#4 4616518#5 4616518#6 4616239#0 4616239#1 4616239#2 4616239#3 4616239#4 4616239#5 -273390876#4 273390876#2"/>
    </vehicle>
    <vehicle id="veh17" type="passenger" depart="49.77" departLane="best">
        <route edges="4612968#0 4612968#1 4612968#2 4612968#3 289966097 289966281 344594961 4790833#0 293931248#0 293931248#1 294104504#1 189133035#0 26506567#1 296598505 296599839#0 296599839#1 297310646#1 298473729 298026906#0 298026906#1 333369841 206451465 299132392#1"/>
    </vehicle>
    <vehicle id="veh18" type="passenger" depart="52.69" departLane="best">
        <route edges="4615407#0 4615407#1 4615407#2 4615406#9 4615406#10 182620302#1 182620302#2 40583888 335846074#0 335846074#1 335843118 19047393 334606648#0 4615492#1 333347376 333934676#1 333934676#2 281095736#1 281095736#2 281095736#3 281095736#4 281095736#5 284736594 282836232#2 30825182 4615594#0 284760972 284761029#0 284761029#1 284761029#2 284761029#3 284761029#4 284761029#5"/>
    </vehicle>
    <vehicle id="veh19" type="passenger" depart="55.62" departLane="best">
        <route edges="31748765#2 31748765#3 -31912630#9 -31912630#8 -31912630#7 -31912630#5 -31912630#4 -31912630#3 -31912630#2 -31912630#1 -31912630#0 -165450001#4 -168943642#6 -168943642#5"/>
    </vehicle>
    <vehicle id="veh20" type="passenger" depart="58.55" departLane="best">
        <route edges="-454285423#0 4610351#0 4610351#1 30721660#4 30721660#5 437325047#0 437325047#2 437325047#3 437325047#5 560370523 437325048#0 -437325054#1 -24243107#2 -24243107#1 -24243107#0 -24243101 492340367 31313667#1 31313667#2 31313667#3 24243092#0 24243092#1 35578576#0 35578576#1 35578576#2 153698394#1 153698394#2 -66071373#1 -243854725#3 24242882#1 24242882#2 68647306#1 68647306#2 68647306#3 68647306#4 -4773029#1"/>
    </vehicle>
    <vehicle id="veh21" type="passenger" depart="61.48" departLane="best">
        <route edges="-194963395 136571494#6 562707499 61583423#0 61583423#1 -156364553#1 -156364553#0 -606078065 60333311#1 60333311#2 289966097 289966281 344594961 4790833#0 293931248#0 293931248#1 294104504#1 189133035#0 26506567#1 296598505 296599839#0 296599839#1 297310646#1 298473729 298026906#0 298026906#1 333369841 206451465 299132392#1 325818854 329612532#1 329612532#2 4615406#1 4615406#2 -4615405#11 -4615405#10 -4615405#9 -4615405#8 -4615405#7 -4615405#6 -4615405#5 -4615405#4 -4615405#3"/>
    </vehicle>
    <vehicle id="veh22" type="passenger" depart="64.40" departLane="best">
        <route edges="-23121445#1 23121445#1 23121445#2 23121445#3 23121445#4 23121445#5 54048862#3 23013165#1 4611698#1 202156994#0 72157174#1 171826984#2 171826984#3 171826984#4 171826984#5 24913524#2 195401006 195401017#3 139877314#1 139877314#2 310357283#0 310357283#2 100405009#0 100405009#2 100405009#3 100405009#4 305093247#0 305093247#2 305093328#1 163368988#3 301733776 29177662#1 288406367 288584715#0 288584715#1 288584715#2 280667874 280667873 280939722#1 103360642#2 291270698 280669754 281750887#2 281751681 30825225 4782483#0 4782483#3 4615624#0 4615624#1 -4615624#1"/>
    </vehicle>
    <vehicle id="veh23" type="passenger" depart="67.33" departLane="best">
        <route edges="296122995#0 296122995#1 187103792#1 307098733 187103791 311690284 187111590#0 187111590#2 19801548#2 188046016#0 66311464#1 82639450 246044848#0 246044848#2 246044848#6 246044841#0 246044844#1 156364559#1"/>
    </vehicle>
    <vehicle id="veh24" type="passenger" depart="70.26" departLane="best">
        <route edges="-62363401 -234463928#0 -234463931#4 -234463931#3 -234463931#2 -234463931#1 -234463931#0 77348147 156364570#1 156364570#2 156364556#1 202157002#1 202157002#2 -534588621#1 -534588621#0 606078071#0 606078071#3 61583423#0 61583423#1 -156364553#1 -156364553#0 -606078065 81112790#1 23851927#0 23851927#1 23851927#2 625843712 52328295#0 43156728#0 -43156728#0 -4610610#2"/>
    </vehicle>
    <vehicle id="veh25" type="passenger" depart="73.19" departLane="best">
        <route edges="-4615405#2 -4615405#1 -4615405#0 -137954786 552963268#1 48377469#0 48377469#1 48377469#2 4615405#8 4615405#9 4615405#10 4615405#11 -4615406#2 -4615406#1 329612224 299396267#1 329774722 299397170 299605621 299605821 298912688 187103792#1 28679067#1 28679067#2 28679067#3 -566764345 -173197451#5 -173197451#3 -173197451#2 110464119 492609985"/>
    </vehicle>
    <vehicle id="veh26" type="passenger" depart="76.11" departLane="best">
        <route edges="299605821 298912688 187103792#1 307098733 187103791 311690284 187111590#0 187111590#2 19801548#2 188046016#0 66311464#1 82639450 313039168#1 168943639#0 168943639#1 29290632#0 29290632#1"/>
    </vehicle>
    <vehicle id="veh27" type="passenger" depart="79.04" departLane="best">
        <route edges="-310176513#7 310176513#7 4612961#2 344594966 344594965#0 344594965#1 156364562#1 312534044#3 246044823 -82652406 -43087099#1 43087099#1"/>
    </vehicle>
    <vehicle id="veh28" type="passenger" depart="81.97" departLane="best">
        <route edges="-29054704#1 -29054704#0 4615497#5 4615497#6 4615497#7 4615497#8 4615497#9 -4615496#4 -4615496#3 -4615496#2 -4615496#1 -448076850 287638448#0 287638448#1 287764737#0 287764737#1 287764737#2 287764737#3 288584452#0 288584452#1 47059460 288355301 288585010 19801548#2 188046016#0 30826268#1 316092515 309155392 195407521 309147331#0 309147331#1 344594962 312357351 309479676 4611726 82649618#0 82649618#1 81112790#1 23851927#0 23851927#1 23851927#2 625843712 52328295#0 43156728#0 43156728#1 43156728#2 43156728#4 120675240#0 120675240#2 -4611696#4 -4611696#3 -43346200#4 15973619#0 15973619#1 15973619#2 15973619#3 15973619#4 15973619#5 15973619#6 15973619#7 15973619#8"/>
    </vehicle>
    <vehicle id="veh29" type="passenger" depart="84.90" departLane="best">
        <route edges="82659290#0 24540242#1 188044903#0 47016365#1 301241483#2 301241681#0 301241681#1 301241681#2 301241681#5 301241681#6 246052428 301167584#0 19002403#1 523630409 19002357#1 19002363#1 19002363#2 -55741054 -62363401 -234463928#0 -234463931#4 -234463931#3 -234463931#2 -234463931#1 -234463931#0 -387892378 -478396988 -370359204#1 -370359204#0 -316746323#2 -316746323#0 -84960595 183415643 46140378 46140382 30721660#1 30721660#2 30721660#3 30721660#4 30721660#5 4610362#0 4610362#1 4610362#2 4610362#3 4610362#4 4610362#5 4610362#6 4610362#7 4610362#8 30721662#0 30721662#1 30721662#2 30721662#3"/>
    </vehicle>
    <vehicle id="veh30" type="passenger" depart="87.82" departLane="best">
        <route edges="246044841#0 246044844#1 31609650#1 31609650#2 31609650#3 31609650#4 31609650#5 31609650#6 31609650#7 31609650#8 31609650#10 370617120#0 4616518#1 4616518#2 4616518#3 4616518#4 4616518#5 4616518#6 4616518#7 4616518#8 4616518#9 4616518#10 4616518#11 4616518#12 284961748#0 284961748#3 30825225 4782483#0 4782483#3 285844578#0 281095764#1 288750967 333526814#0 299132392#1 325818854 329612532#1 329612532#2"/>
    </vehicle>
    <vehicle id="veh31" type="passenger" depart="90.75" departLane="best">
        <route edges="46140382 30721660#1 30721660#2 30721660#3 30721660#4 30721660#5 437325047#0 437325047#2 437325047#3 437325047#5 560370523 437325048#0 -437325054#1 -24243107#2 -24243107#1 -24243107#0 -24243101 492340367 31313667#1 31313667#2 31313667#3 24243092#0 24243092#1 35578576#0 35578576#1 35578576#2 153698394#1 153698394#2 -66071373#1 -243854725#3 24242882#1 24242882#2 4611706#0"/>
    </vehicle>
    <vehicle id="veh32" type="passenger" depart="93.68" departLane="best">
        <route edges="-454285423#3 -454285423#1 -454285423#0 4610351#0 4610351#1 30721660#4 30721660#5 437325047#0 437325047#2 437325047#3 437325047#5 560370523 437325048#0 -165415464#1"/>
    </vehicle>
    <vehicle id="veh33" type="passenger" depart="96.61" departLane="best">
        <route edges="-4615620#2 4615620#2 281095736#1 281095736#2 281095736#3 281095736#4 281095736#5 284736594 282836232#2 30825182 4615594#0 284760972 4615599#0 4615599#1 -4615599#1"/>
    </vehicle>
    <vehicle id="veh34" type="passenger" depart="99.53" departLane="best">
        <route edges="-43156728#2 -43156728#1 -43156728#0 -52328295#2 23851917#0 23851917#1 23851917#2 23851922#1 23812656#0 23812656#2 286653195 60333309#0 60333309#1 24992424#0 168943640#0 168943640#3 168943640#4 495066404"/>
    </vehicle>
    <vehicle id="veh35" type="passenger" depart="102.46" departLane="best">
        <route edges="4615497#5 4615497#6 4615497#7 4615497#8 4615497#9 -4615496#4 -4615496#3 -4615496#2 -4615496#1 -448076850 287638448#0 287638448#1 287764737#0 287764737#1 287764737#2 287764737#3 288584452#0 288584452#1 47059460 288355301 288585010 19801548#2 188046016#0 30826268#1 316092515 309155392 195407521 309147331#0 309147331#1 344594962 312357351 309479676 4611726 82649618#0 82649618#1 81112790#1 23851927#0 23851927#1 23851927#2 625843712 52328295#0 43156728#0 43156728#1 43156728#2 43156728#4 120675240#0 120675240#2 -4611696#4 -4611696#3 -23755950#3 -23755950#0 -66071366#3 -66071366#1"/>
    </vehicle>
    <vehicle id="veh36" type="passenger" depart="105.39" departLane="best">
        <route edges="304627753 233835385 328426208#0 23851917#0 23851917#1 23851917#2 23851922#1 23812656#0 23812656#2 286653195 60333309#0 60333309#1 24992424#0 168943640#0 168943640#3"/>
    </vehicle>
    <vehicle id="veh37" type="passenger" depart="108.32" departLane="best">
        <route edges="4616518#12 284961748#0 284961748#3 30825225 284757122 284729550#0 283283195#1 288404288 286689291#1 286837510#1 286837510#2 286837510#3 448076850 4615496#1 4615496#2 4615496#3 4615496#4 -4615497#9 -4615497#8 -4615497#7 -4615497#6 -4615497#5 29054704#0 29054704#1 29054704#2 29054704#3 298473729 298026906#0 298026906#1 333369841 206451465"/>
    </vehicle>
    <vehicle id="veh38" type="passenger" depart="111.24" departLane="best">
        <route edges="-4615405#1 -4615405#0 -137954786 552963268#1 48377469#0 48377469#1 48377469#2 4615405#8 4615405#9 4615405#10 4615405#11 4615406#4 4615406#7 4615406#8 4615407#3 4615407#4 4615407#5 -4615407#5"/>
    </vehicle>
    <vehicle id="veh39" type="passenger" depart="114.17" departLane="best">
        <route edges="24913519#2 541763975 202156995#0 202156995#1 4067932#1 54048862#3 23013165#1 4611698#1 202156994#0 72157174#1 171826984#2 171826984#3 171826984#4 171826984#5 24913524#2 195401006 195401017#3 139877314#1 139877314#2 310357283#0 310357283#2 100405009#0 100405009#2 100405009#3 100405009#4 305093247#0 305093247#2 305093328#1 163368988#3 301733776 29177662#1 288406367 288584715#0 288584715#1 288584715#2 280667874 280667873 280939722#1 103360642#2 291270698 280669754 281750887#2 281751681 30825225 4782483#0 4782483#3 -4615536#7 -4615536#6 -4615536#5 -4615536#4 -4615536#3"/>
    </vehicle>
    <vehicle id="veh40" type="passenger" depart="117.10" departLane="best">
        <route edges="273390876#1 273390876#2 -4616239#7 -4616239#4 -4616239#3 -4616239#2 -4616239#1 -4616239#0 -66514469 284761029#1 284761029#2 284761029#3 284761029#4 284761029#5 370617124#0 370617124#1 4616518#1 4616518#2 4616518#3 4616518#4"/>
    </vehicle>
    <vehicle id="veh41" type="passenger" depart="120.02" departLane="best">
        <route edges="128396190#1 -128396190#1 4611726 82649618#0 82649618#1 156364566#1 60333309#0 60333309#1 24992424#0 24992424#3 4612961#0 310176513#9 -4612966#1 -4612966#0"/>
    </vehicle>
    <vehicle id="veh42" type="passenger" depart="122.95" departLane="best">
        <route edges="83517339 -4610480 -168937986#4 -168937986#3 -168937986#2 -168937986#0 354528932 251884680 339201217#1 15971196#1 54048862#0 54048862#2 54048862#3 23013165#1 4611698#1 202156994#0 -534588621#1 -534588621#0 606078071#0 606078071#3 61583423#0 61583423#1 -156364553#1 -156364553#0 -606078065 81112790#1 23851927#0 23851927#1"/>
    </vehicle>
    <vehicle id="veh43" type="passenger" depart="125.88" departLane="best">
        <route edges="-22954356#4 -22954356#3 -22954356#2 -22954356#1 -22954356#0 23443935#0 23443935#1 23443935#2 18997847#2 25086766 25086767#0 25086767#1 25086767#2 25086767#3 156364562#1 312534044#3 246044823 312533961#0 312533962#1 312533962#2 312533962#3 313039168#1 313195075 188047750 312514710#0 24540242#1 188044903#0 47016365#1 301241483#2 301241681#0 301241681#1 301241681#2 301241681#5 301241681#6 246052428 301167584#0 112128418#1 112128418#2 112128418#5 173197451#0 -173197451#0"/>
    </vehicle>
    <vehicle id="veh44" type="passenger" depart="128.81" departLane="best">
        <route edges="-23386522#8 -23386522#7 -23386522#6 -23386522#5 -23386522#4 -23386522#3 -23386522#2 -23386522#1 -23386522#0 -165450001#1 103360642#2 291270698 280669754 281750887#2 281751681 284743461#0 284743461#2 303406976#0 303406976#1"/>
    </vehicle>
    <vehicle id="veh45" type="passenger" depart="131.73" departLane="best">
        <route edges="4588219 -22972473#2 389101365#0 389101365#3 66071366#0 66071366#1 66071366#2 23755950#0 23755950#1 4611696#1 4611696#4 4611696#5 -120675240#1 -43156728#5 -43156728#2 -43156728#1 -43156728#0 -52328295#2 23851917#0 23851917#1 23851917#2 23851922#1 23812656#0 23812656#2 286653195 60333309#0 60333309#1 24992424#0 24992424#3 4612961#0 4612961#2 344594966 344594965#0 344594965#1 31609650#1 31609650#2 31609650#3 31609650#4 31609650#5 31609650#6 31609650#7 31609650#8 31609650#10 370617120#0 189037368#0 189037368#3"/>
    </vehicle>
    <vehicle id="veh46" type="passenger" depart="134.66" departLane="best">
        <route edges="-182620303 335843118 19047393 334606648#0 299132392#1 325818854 329612532#1 329612532#2 329612224 299396267#1 329774722 299397170 299605621 299605821 298912688 187103792#1 307098733 187103791 311690284 187111590#0 187111590#2 47016365#1 163368988#3"/>
    </vehicle>
    <vehicle id="veh47" type="passenger" depart="137.59" departLane="best">
        <route edges="83517336#2 153698394#1 153698394#2 340498982#0 340498982#1 340498982#3 340498982#4 340498982#7 354528932 251884680 339201217#1 15971196#1 54048862#0 54048862#2 54048862#3 23013165#1 4611698#1 202156994#0 72157174#1 171826984#2 171826984#3 171826984#4 171826984#5 24913524#2"/>
    </vehicle>
    <vehicle id="veh48" type="passenger" depart="140.52" departLane="best">
        <route edges="66071366#1 66071366#2 23755950#0 23755950#1 4611696#1 4611696#4 4611696#5 -120675240#1 -43156728#5 -43156728#2 -43156728#1 -43156728#0 -52328295#2 23851917#0 23851917#1 23851917#2 23851922#1 23812656#0 23812656#2 286653195 60333309#0 60333309#1 24992424#0 24992424#3 4612961#0 4612961#2 344594966 344594965#0 344594965#1 31609650#1 31609650#2 31609650#3 31609650#4 31609650#5 31609650#6 31609650#7 31609650#8 31609650#10 370617120#0 4615597#1 4615597#2 4615597#3"/>
    </vehicle>
    <vehicle id="veh49" type="passenger" depart="143.44" departLane="best">
        <route edges="-112128825#1 -268002748#0 24914141#5 318282850#2 19002403#1 523630409 19002357#1 19002363#1 19002363#2 -55741054 -62363401 -234463928#0 -234463931#4 -234463931#3 -234463931#2 -234463931#1 -234463931#0 -387892378 -478396988 370359204#2"/>
    </vehicle>
    <vehicle id="veh50" type="passenger" depart="146.37" departLane="best">
        <route edges="310176513#6 310176513#7 4612961#2 344594966 344594965#0 344594965#1 19001381#1 19001381#2 176031291#1 18997847#2 25086766 25086767#0"/>
    </vehicle>
    <vehicle id="veh51" type="passenger" depart="149.30" departLane="best">
        <route edges="-4615405#2 -4615405#1 -4615405#0 -137954786 552963268#1 48377469#0 48377469#1 48377469#2 4615405#8 4615405#9 4615405#10 4615405#11 4615406#4 4615406#7 4615406#8 4615406#9 4615406#10 182620302#1 182620302#2 40583888 335846074#0 335846074#1 335843118 19047393 334606648#0 4615492#1 333347376 333934676#1 333934676#2 281095736#1 281095736#2 281095736#3 281095736#4 281095736#5 284736594 282836232#2 30825182"/>
    </vehicle>
    <vehicle id="veh52" type="passenger" depart="152.23" departLane="best">
        <route edges="-23386525#1 -23386525#0 31912630#5 31912630#7 31912630#8 31912630#9 31912630#10 31912630#11 66514469 4616518#7 4616518#8 4616518#9 4616518#10 4616518#11 4616518#12 284961748#0 284961748#3 30825225 4782483#0 4782483#3 285844578#0 281095764#1 288750967 333526814#0 4615402#1 -182620303 -335846425 -335846074#0 -40583888 -511653652 19047484#0"/>
    </vehicle>
    <vehicle id="veh53" type="passenger" depart="155.15" departLane="best">
        <route edges="171826984#3 171826984#4 171826984#5 24913524#2 195401006 195401017#3 139877314#1 139877314#2 310357283#0 310357283#2 112128419#1 112128419#2 415280722 195401013#2 195401013#3 24914992#1 171826985#1 171826985#3 24913519#1 24913519#2 541763975 202156995#0 202156995#1 4067932#1 541763974 61584187#1 61584187#2 61584187#3 61584187#4 54048863 15971197#1 4611699 169195795#0 354528932 251884680 339201217#1 15971196#1 54048862#0 54048862#2"/>
    </vehicle>
    <vehicle id="veh54" type="passenger" depart="158.08" departLane="best">
        <route edges="4615497#4 4615497#5 4615497#6 4615497#7 4615497#8 4615497#9 -4615496#4 -4615496#3 -4615496#2 -4615496#1 4615536#0 4615536#1 4615536#2 4615536#3 4615536#4 -4615536#4"/>
    </vehicle>
    <vehicle id="veh55" type="passenger" depart="161.01" departLane="best">
        <route edges="202157002#1 202157002#2 -534588621#1 -534588621#0 606078071#0 606078071#3 61583423#0 61583423#1 -156364553#1 -156364553#0 -606078065 156364566#1 60333309#0 60333309#1 24992424#0 24992424#3 4612961#0 4612961#2 344594966 344594965#0 344594965#1 156364562#1 312534044#3 246044823 -82652406 -43087099#1 -43087099#0 -165450001#6 31912630#0 31912630#1 31912630#2 31912630#3 4083446#0 4083446#2 4083446#3 -4083446#3"/>
    </vehicle>
    <vehicle id="veh56" type="passenger" depart="163.94" departLane="best">
        <route edges="4616518#1 4616518#2 4616518#3 4616518#4 4616518#5 4616518#6 4616518#7 4616518#8 4616518#9 4616518#10 4616518#11 4616518#12 284961748#0 284961748#3 30825225 4782483#0 4782483#3 285844578#0 -4615620#2 -4615620#1 -4615620#0 4615620#0"/>
    </vehicle>
    <vehicle id="veh57" type="passenger" depart="166.86" departLane="best">
        <route edges="-4615536#4 -4615536#3 -4615536#2 -4615536#1 -4615536#0 -448076850 287638448#0 287638448#1 287764737#0 287764737#1 287764737#2 287764737#3 288584452#0 288584452#1 47059460 288355301 288585010 47016365#1 301241483#2 301241681#0 301241681#1 301241681#2 301241681#5 301241681#6 246052428 301167584#0 19002403#1 523630409 19002357#1 19002363#1 19002363#2 -55741054 -62363401 -234463928#0 -234463931#4 -234463931#3 -234463931#2 -234463931#1 -234463931#0 -387892378 -478396988 -370359204#1 -370359204#0 -316746323#2 -316746323#0 -84960595 183415643 46140378 46140382 30721660#1 30721660#2 30721660#3 30721660#4 30721660#5 4610362#0 4610362#1 4610362#2 4610362#3 4610362#4 4610362#5 4610362#6 4610362#7 4610362#8 30721662#0 30721662#1"/>
    </vehicle>
    <vehicle id="veh58" type="passenger" depart="169.79" departLane="best">
        <route edges="28679067#2 28679067#3 -4613306 19801644#0 311690284 187111590#0 187111590#2 29177662#1 288406367 288584715#0 288584715#1 288584715#2 280667874 280667873 280939722#1 165450001#1 165450001#3 165450001#4 31912630#0 31912630#1 -31912630#1"/>
    </vehicle>
    <vehicle id="veh59" type="passenger" depart="172.72" departLane="best">
        <route edges="40583888 335846074#0 335846074#1 335843118 19047393 334606648#0 4615492#1 333347376 333934676#1 333934676#2 281095736#1 281095736#2 281095736#3 281095736#4 281095736#5 284736594 282836232#2 30825182 4615594#0 284760972 284761029#0 284761029#1 284761029#2 284761029#3 284761029#4 284761029#5 370617124#0 370617124#1 4615597#1 4615597#2 4615597#3 4615597#4 82652409#0 82652409#1 19001381#1 19001381#2 176031291#1 25086769#1"/>
    </vehicle>
    <vehicle id="veh60" type="passenger" depart="175.65" departLane="best">
        <route edges="437325047#3 -437325047#3 -437325047#2 -437325047#0 4610362#0 4610362#1 4610362#2 4610362#3 4610362#4 4610362#5 4610362#6 4610362#7 4610362#8 30721662#0 30721662#1 30721662#2 30721662#3 23809670#3 23809670#4 23809670#5 28016312#0 28016312#1 156364556#1 202157002#1 202157002#2 72157174#1 171826984#2 171826984#3 171826984#4 171826984#5 24913524#2 195401006 195401017#3 139877314#1 139877314#2 310357283#0 310357283#2 112128419#1 112128419#2 415280722 195401013#2 195401013#3 24914992#1"/>
    </vehicle>
    <vehicle id="veh61" type="passenger" depart="178.57" departLane="best">
        <route edges="-128396190#4 128396189#0 128396189#1 128396189#2 156364553#0 156364553#1 606078066#0 72157172 61583424#0 61583424#1 534588621#0 534588621#1 4773465#1 4773465#2 4773465#3 490365295#1 -156364570#3 -156364570#1 -156364570#0 25294728 234463931#1 234463931#2 234463931#3 234463931#4 234463931#5 234463928#1 -168942727#1 -168942727#0 48664717#2"/>
    </vehicle>
    <vehicle id="veh62" type="passenger" depart="181.50" departLane="best">
        <route edges="4615497#9 -4615497#9 -4615497#8 -4615497#7 -4615497#6 -4615497#5 29054704#0 29054704#1 29054704#2 29054704#3 298473729 298026906#0 298026906#1 333369841 206451465 4615492#1"/>
    </vehicle>
    <vehicle id="veh63" type="passenger" depart="184.43" departLane="best">