<?xml version="1.0"?>
<!-- generated on 2018-12-08 18:06:30.175448 by $Id: route2trips.py 23614 2017-03-22 13:02:46Z luecken $ via randomTrips.py
  options: 
-->
<routes xmlns:xsi="http://www.w3.org/2001/XMLSchema-instance" xsi:noNamespaceSchemaLocation="http://sumo.dlr.de/xsd/routes_file.xsd">
    <vType id="passenger" vClass="passenger">
    </vType>
    <trip id="veh0" depart="0.00" departLane="best" from="298026906#0" to="-15973619#2" type="passenger"/>
    <trip id="veh1" depart="2.93" departLane="best" from="-4615406#8" to="-4612968#2" type="passenger"/>
    <trip id="veh2" depart="5.85" departLane="best" from="344594962" to="31912630#4" type="passenger"/>
    <trip id="veh3" depart="8.78" departLane="best" from="4615599#4" to="-23386522#2" type="passenger"/>
    <trip id="veh4" depart="11.71" departLane="best" from="156364570#2" to="-165415464#1" type="passenger"/>
    <trip id="veh5" depart="14.64" departLane="best" from="-4396823" to="23813206#2" type="passenger"/>
    <trip id="veh6" depart="17.56" departLane="best" from="-147066248#3" to="-4588219" type="passenger"/>
    <trip id="veh7" depart="20.49" departLane="best" from="301241681#0" to="25294729#1" type="passenger"/>
    <trip id="veh8" depart="23.42" departLane="best" from="-4412868" to="288404288" type="passenger"/>
    <trip id="veh9" depart="26.35" departLane="best" from="4610610#2" to="-128396189#2" type="passenger"/>
    <trip id="veh10" depart="29.27" departLane="best" from="-48377469#0" to="-31912630#5" type="passenger"/>
    <trip id="veh11" depart="32.20" departLane="best" from="60333313" to="112128418#1" type="passenger"/>
    <trip id="veh12" depart="35.13" departLane="best" from="-22954356#7" to="-234463931#0" type="passenger"/>
    <trip id="veh13" depart="38.06" departLane="best" from="4615405#0" to="29052147#3" type="passenger"/>
    <trip id="veh14" depart="40.98" departLane="best" from="4610607" to="43087099#3" type="passenger"/>
    <trip id="veh15" depart="43.91" departLane="best" from="23809678#4" to="61583424#1" type="passenger"/>
    <trip id="veh16" depart="46.84" departLane="best" from="-82658674#2" to="273390876#2" type="passenger"/>
    <trip id="veh17" depart="49.77" departLane="best" from="4612968#0" to="299132392#1" type="passenger"/>
    <trip id="veh18" depart="52.69" departLane="best" from="4615407#0" to="284761029#5" type="passenger"/>
    <trip id="veh19" depart="55.62" departLane="best" from="31748765#2" to="-168943642#5" type="passenger"/>
    <trip id="veh20" depart="58.55" departLane="best" from="-454285423#0" to="-4773029#1" type="passenger"/>
    <trip id="veh21" depart="61.48" departLane="best" from="-194963395" to="-4615405#3" type="passenger"/>
    <trip id="veh22" depart="64.40" departLane="best" from="-23121445#1" to="-4615624#1" type="passenger"/>
    <trip id="veh23" depart="67.33" departLane="best" from="296122995#0" to="156364559#1" type="passenger"/>
    <trip id="veh24" depart="70.26" departLane="best" from="-62363401" to="-4610610#2" type="passenger"/>
    <trip id="veh25" depart="73.19" departLane="best" from="-4615405#2" to="492609985" type="passenger"/>
    <trip id="veh26" depart="76.11" departLane="best" from="299605821" to="29290632#1" type="passenger"/>
    <trip id="veh27" depart="79.04" departLane="best" from="-310176513#7" to="43087099#1" type="passenger"/>
    <trip id="veh28" depart="81.97" departLane="best" from="-29054704#1" to="15973619#8" type="passenger"/>
    <trip id="veh29" depart="84.90" departLane="best" from="82659290#0" to="30721662#3" type="passenger"/>
    <trip id="veh30" depart="87.82" departLane="best" from="246044841#0" to="329612532#2" type="passenger"/>
    <trip id="veh31" depart="90.75" departLane="best" from="46140382" to="4611706#0" type="passenger"/>
    <trip id="veh32" depart="93.68" departLane="best" from="-454285423#3" to="-165415464#1" type="passenger"/>
    <trip id="veh33" depart="96.61" departLane="best" from="-4615620#2" to="-4615599#1" type="passenger"/>
    <trip id="veh34" depart="99.53" departLane="best" from="-43156728#2" to="495066404" type="passenger"/>
    <trip id="veh35" depart="102.46" departLane="best" from="4615497#5" to="-66071366#1" type="passenger"/>
    <trip id="veh36" depart="105.39" departLane="best" from="304627753" to="168943640#3" type="passenger"/>
    <trip id="veh37" depart="108.32" departLane="best" from="4616518#12" to="206451465" type="passenger"/>
    <trip id="veh38" depart="111.24" departLane="best" from="-4615405#1" to="-4615407#5" type="passenger"/>
    <trip id="veh39" depart="114.17" departLane="best" from="24913519#2" to="-4615536#3" type="passenger"/>
    <trip id="veh40" depart="117.10" departLane="best" from="273390876#1" to="4616518#4" type="passenger"/>
    <trip id="veh41" depart="120.02" departLane="best" from="128396190#1" to="-4612966#0" type="passenger"/>
    <trip id="veh42" depart="122.95" departLane="best" from="83517339" to="23851927#1" type="passenger"/>
    <trip id="veh43" depart="125.88" departLane="best" from="-22954356#4" to="-173197451#0" type="passenger"/>
    <trip id="veh44" depart="128.81" departLane="best" from="-23386522#8" to="303406976#1" type="passenger"/>
    <trip id="veh45" depart="131.73" departLane="best" from="4588219" to="189037368#3" type="passenger"/>
    <trip id="veh46" depart="134.66" departLane="best" from="-182620303" to="163368988#3" type="passenger"/>
    <trip id="veh47" depart="137.59" departLane="best" from="83517336#2" to="24913524#2" type="passenger"/>
    <trip id="veh48" depart="140.52" departLane="best" from="66071366#1" to="4615597#3" type="passenger"/>
    <trip id="veh49" depart="143.44" departLane="best" from="-112128825#1" to="370359204#2" type="passenger"/>
    <trip id="veh50" depart="146.37" departLane="best" from="310176513#6" to="25086767#0" type="passenger"/>
    <trip id="veh51" depart="149.30" departLane="best" from="-4615405#2" to="30825182" type="passenger"/>
    <trip id="veh52" depart="152.23" departLane="best" from="-23386525#1" to="19047484#0" type="passenger"/>
    <trip id="veh53" depart="155.15" departLane="best" from="171826984#3" to="54048862#2" type="passenger"/>
    <trip id="veh54" depart="158.08" departLane="best" from="4615497#4" to="-4615536#4" type="passenger"/>
    <trip id="veh55" depart="161.01" departLane="best" from="202157002#1" to="-4083446#3" type="passenger"/>
    <trip id="veh56" depart="163.94" departLane="best" from="4616518#1" to="4615620#0" type="passenger"/>
    <trip id="veh57" depart="166.86" departLane="best" from="-4615536#4" to="30721662#1" type="passenger"/>
    <trip id="veh58" depart="169.79" departLane="best" from="28679067#2" to="-31912630#1" type="passenger"/>
    <trip id="veh59" depart="172.72" departLane="best" from="40583888" to="25086769#1" type="passenger"/>
    <trip id="veh60" depart="175.65" departLane="best" from="437325047#3" to="24914992#1" type="passenger"/>
    <trip id="veh61" depart="178.57" departLane="best" from="-128396190#4" to="48664717#2" type="passenger"/>
    <trip id="veh62" depart="181.50" departLane="best" from="4615497#9" to="4615492#1" type="passenger"/>
    <trip id="veh63" depart="184.43" departLane="best" from="-4615599#4" to="-182620302#0" type="passenger"/>
    <trip id="veh64" depart="187.36" departLane="best" from="4615497#8" to="51167934#4" type="passenger"/>
    <trip id="veh65" depart="190.28" departLane="best" from="-19801644#0" to="23386522#5" type="passenger"/>
    <trip id="veh66" depart="193.21" departLane="best" from="-19002363#10" to="4610472#2" type="passenger"/>
    <trip id="veh67" depart="196.14" departLane="best" from="43087099#1" to="-284945379" type="passenger"/>
    <trip id="veh68" depart="199.07" departLane="best" from="-4615405#1" to="4615621#0" type="passenger"/>
    <trip id="veh69" depart="201.99" departLane="best" from="15971196#1" to="-4611706#0" type="passenger"/>
    <trip id="veh70" depart="204.92" departLane="best" from="23851917#0" to="43087099#3" type="passenger"/>
    <trip id="veh71" depart="207.85" departLane="best" from="-36892597#2" to="-6227658" type="passenger"/>
    <trip id="veh72" depart="210.78" departLane="best" from="83517336#0" to="310177222#0" type="passenger"/>
    <trip id="veh73" depart="213.70" departLane="best" from="168937986#3" to="24242882#2" type="passenger"/>
    <trip id="veh74" depart="216.63" departLane="best" from="-23809670#5" to="-4612969#0" type="passenger"/>
    <trip id="veh75" depart="219.56" departLane="best" from="-4790825#2" to="287764737#3" type="passenger"/>
    <trip id="veh76" depart="222.49" departLane="best" from="-4610375" to="-4612966#0" type="passenger"/>
    <trip id="veh77" depart="225.41" departLane="best" from="-19002363#4" to="305093328#1" type="passenger"/>
    <trip id="veh78" depart="228.34" departLane="best" from="-454285423#3" to="47059460" type="passenger"/>
    <trip id="veh79" depart="231.27" departLane="best" from="4615407#0" to="-195397561#0" type="passenger"/>
    <trip id="veh80" depart="234.20" departLane="best" from="-4610610#2" to="316746323#0" type="passenger"/>
    <trip id="veh81" depart="237.12" departLane="best" from="-437325047#2" to="-29054704#2" type="passenger"/>
    <trip id="veh82" depart="240.05" departLane="best" from="492609984" to="284736594" type="passenger"/>
    <trip id="veh83" depart="242.98" departLane="best" from="188047750" to="4612427#0" type="passenger"/>
    <trip id="veh84" depart="245.90" departLane="best" from="4610608" to="-437325048#1" type="passenger"/>
    <trip id="veh85" depart="248.83" departLane="best" from="-22972473#3" to="19002363#4" type="passenger"/>
    <trip id="veh86" depart="251.76" departLane="best" from="15971197#1" to="22954356#5" type="passenger"/>
    <trip id="veh87" depart="254.69" departLane="best" from="340498976#4" to="31912630#0" type="passenger"/>
    <trip id="veh88" depart="257.61" departLane="best" from="82652409#0" to="-234463931#3" type="passenger"/>
    <trip id="veh89" depart="260.54" departLane="best" from="136571494#6" to="112128419#2" type="passenger"/>
    <trip id="veh90" depart="263.47" departLane="best" from="4615407#0" to="-4615494#2" type="passenger"/>
    <trip id="veh91" depart="266.40" departLane="best" from="-339201177#1" to="195401013#3" type="passenger"/>
    <trip id="veh92" depart="269.32" departLane="best" from="156364570#2" to="-4615624#2" type="passenger"/>
    <trip id="veh93" depart="272.25" departLane="best" from="-4612427#2" to="4790839#1" type="passenger"/>
    <trip id="veh94" depart="275.18" departLane="best" from="168943640#0" to="4615597#4" type="passenger"/>
    <trip id="veh95" depart="278.11" departLane="best" from="24242882#1" to="-173197451#3" type="passenger"/>
    <trip id="veh96" depart="281.03" departLane="best" from="84960597#0" to="4615494#6" type="passenger"/>
    <trip id="veh97" depart="283.96" departLane="best" from="6227658" to="48377469#1" type="passenger"/>
    <trip id="veh98" depart="286.89" departLane="best" from="4615405#10" to="-35557143#4" type="passenger"/>
    <trip id="veh99" depart="289.82" departLane="best" from="19047393" to="-4611708#1" type="passenger"/>
    <trip id="veh100" depart="292.74" departLane="best" from="136571494#3" to="-182620302#0" type="passenger"/>
    <trip id="veh101" depart="295.67" departLane="best" from="-82658674#4" to="82639450" type="passenger"/>
    <trip id="veh102" depart="298.60" departLane="best" from="-4615405#1" to="4612427#0" type="passenger"/>
    <trip id="veh103" depart="301.53" departLane="best" from="171826984#5" to="189133035#0" type="passenger"/>
    <trip id="veh104" depart="304.45" departLane="best" from="60333313" to="83517334#1" type="passenger"/>
    <trip id="veh105" depart="307.38" departLane="best" from="24540242#1" to="36892597#1" type="passenger"/>
    <trip id="veh106" depart="310.31" departLane="best" from="-276701303" to="-48907691#2" type="passenger"/>
    <trip id="veh107" depart="313.24" departLane="best" from="6227658" to="284961748#3" type="passenger"/>
    <trip id="veh108" depart="316.16" departLane="best" from="23851927#0" to="4610355#0" type="passenger"/>
    <trip id="veh109" depart="319.09" departLane="best" from="-168943642#3" to="286837510#2" type="passenger"/>
    <trip id="veh110" depart="322.02" departLane="best" from="202817674#4" to="4615536#7" type="passenger"/>
    <trip id="veh111" depart="324.95" departLane="best" from="-29052147#0" to="55741054" type="passenger"/>
    <trip id="veh112" depart="327.87" departLane="best" from="-194963395" to="-43159545#0" type="passenger"/>
    <trip id="veh113" depart="330.80" departLane="best" from="282627234" to="31912630#11" type="passenger"/>
    <trip id="veh114" depart="333.73" departLane="best" from="-4610480" to="-25302636#1" type="passenger"/>
    <trip id="veh115" depart="336.66" departLane="best" from="4615599#1" to="-4615407#4" type="passenger"/>
    <trip id="veh116" depart="339.58" departLane="best" from="281751681" to="299397170" type="passenger"/>
    <trip id="veh117" depart="342.51" departLane="best" from="156364559#7" to="286837510#2" type="passenger"/>
    <trip id="veh118" depart="345.44" departLane="best" from="23386522#6" to="490365295#1" type="passenger"/>
    <trip id="veh119" depart="348.37" departLane="best" from="-389101365#4" to="35578576#1" type="passenger"/>
    <trip id="veh120" depart="351.29" departLane="best" from="-4610612" to="168943640#4" type="passenger"/>
    <trip id="veh121" depart="354.22" departLane="best" from="30721662#0" to="-51167934#1" type="passenger"/>
    <trip id="veh122" depart="357.15" departLane="best" from="-4615624#0" to="4610355#2" type="passenger"/>
    <trip id="veh125" depart="365.93" departLane="best" from="-194962997#1" to="-4611708#0" type="passenger"/>
    <trip id="veh126" depart="368.86" departLane="best" from="-4615405#1" to="48907691#3" type="passenger"/>
    <trip id="veh127" depart="371.78" departLane="best" from="4615536#2" to="4615624#4" type="passenger"/>
    <trip id="veh128" depart="374.71" departLane="best" from="-606078069#3" to="-31912630#9" type="passenger"/>
    <trip id="veh129" depart="377.64" departLane="best" from="4612970#0" to="340498988" type="passenger"/>
    <trip id="veh130" depart="380.57" departLane="best" from="286837510#3" to="82652409#0" type="passenger"/>
    <trip id="veh131" depart="383.49" departLane="best" from="304627753" to="-136571494#0" type="passenger"/>
    <trip id="veh132" depart="386.42" departLane="best" from="4611706#1" to="-511653652" type="passenger"/>
    <trip id="veh133" depart="389.35" departLane="best" from="30705211#0" to="493008124" type="passenger"/>
    <trip id="veh134" depart="392.28" departLane="best" from="-24243107#2" to="-24992424#5" type="passenger"/>
    <trip id="veh135" depart="395.20" departLane="best" from="-23386522#3" to="273390876#5" type="passenger"/>
    <trip id="veh136" depart="398.13" departLane="best" from="329612532#2" to="-4610524" type="passenger"/>
    <trip id="veh137" depart="401.06" departLane="best" from="293931248#0" to="-4615536#5" type="passenger"/>
    <trip id="veh138" depart="403.99" departLane="best" from="194962997#0" to="47059460" type="passenger"/>
    <trip id="veh139" depart="406.91" departLane="best" from="461526152" to="-23386525#0" type="passenger"/>
    <trip id="veh140" depart="409.84" departLane="best" from="15971197#1" to="-4615620#2" type="passenger"/>
    <trip id="veh141" depart="412.77" departLane="best" from="-109819340#4" to="4611693#1" type="passenger"/>
    <trip id="veh142" depart="415.70" departLane="best" from="296598505" to="-4615536#2" type="passenger"/>
    <trip id="veh143" depart="418.62" departLane="best" from="346406233" to="273390876#1" type="passenger"/>
    <trip id="veh144" depart="421.55" departLane="best" from="15973619#6" to="-136571494#3" type="passenger"/>
    <trip id="veh145" depart="424.48" departLane="best" from="-194962998#0" to="4616239#1" type="passenger"/>
    <trip id="veh146" depart="427.41" departLane="best" from="4616239#0" to="25360667#1" type="passenger"/>
    <trip id="veh147" depart="430.33" departLane="best" from="4612970#1" to="28679067#3" type="passenger"/>
    <trip id="veh148" depart="433.26" departLane="best" from="-273390876#1" to="-28016312#3" type="passenger"/>
    <trip id="veh149" depart="436.19" departLane="best" from="-4615599#5" to="4616518#6" type="passenger"/>
    <trip id="veh150" depart="439.12" departLane="best" from="4610362#1" to="4615597#3" type="passenger"/>
    <trip id="veh151" depart="442.04" departLane="best" from="4615620#1" to="-4610612" type="passenger"/>
    <trip id="veh152" depart="444.97" departLane="best" from="-4612427#2" to="-23813206#0" type="passenger"/>
    <trip id="veh153" depart="447.90" departLane="best" from="437325048#0" to="4616239#3" type="passenger"/>
    <trip id="veh154" depart="450.83" departLane="best" from="147066248#0" to="299605821" type="passenger"/>
    <trip id="veh155" depart="453.75" departLane="best" from="-276701303" to="48907691#0" type="passenger"/>
    <trip id="veh156" depart="456.68" departLane="best" from="4615407#4" to="625843712" type="passenger"/>
    <trip id="veh157" depart="459.61" departLane="best" from="4611693#0" to="4615624#4" type="passenger"/>
    <trip id="veh158" depart="462.54" departLane="best" from="-137954786" to="433126110" type="passenger"/>
    <trip id="veh159" depart="465.46" departLane="best" from="4610472#1" to="4615599#4" type="passenger"/>
    <trip id="veh160" depart="468.39" departLane="best" from="4611693#0" to="-4615599#0" type="passenger"/>
    <trip id="veh162" depart="474.24" departLane="best" from="4615496#4" to="4615594#0" type="passenger"/>
    <trip id="veh163" depart="477.17" departLane="best" from="-4412868" to="4615405#0" type="passenger"/>
    <trip id="veh164" depart="480.10" departLane="best" from="176031295" to="-55741054" type="passenger"/>
    <trip id="veh165" depart="483.03" departLane="best" from="4610362#0" to="-4612976" type="passenger"/>
    <trip id="veh166" depart="485.95" departLane="best" from="-136571494#7" to="-454285423#1" type="passenger"/>
    <trip id="veh167" depart="488.88" departLane="best" from="-4616246#5" to="4615599#4" type="passenger"/>
    <trip id="veh168" depart="491.81" departLane="best" from="6227658" to="-4615624#3" type="passenger"/>
    <trip id="veh169" depart="494.74" departLane="best" from="298469574" to="169195795#0" type="passenger"/>
    <trip id="veh170" depart="497.66" departLane="best" from="77348147" to="25086766" type="passenger"/>
    <trip id="veh171" depart="500.59" departLane="best" from="511653652" to="-24992424#5" type="passenger"/>
    <trip id="veh172" depart="503.52" departLane="best" from="66071366#0" to="-4083446#3" type="passenger"/>
    <trip id="veh173" depart="506.45" departLane="best" from="61583424#0" to="-4615546#0" type="passenger"/>
    <trip id="veh174" depart="509.37" departLane="best" from="-23386522#6" to="19047484#0" type="passenger"/>
    <trip id="veh175" depart="512.30" departLane="best" from="340498976#2" to="-628330888" type="passenger"/>
    <trip id="veh176" depart="515.23" departLane="best" from="285844578#0" to="23852053#1" type="passenger"/>
    <trip id="veh177" depart="518.16" departLane="best" from="109819340#1" to="284761029#4" type="passenger"/>
    <trip id="veh178" depart="521.08" departLane="best" from="-4612968#1" to="354528932" type="passenger"/>
    <trip id="veh179" depart="524.01" departLane="best" from="-109819340#4" to="48303485#2" type="passenger"/>
    <trip id="veh180" depart="526.94" departLane="best" from="23813206#0" to="370359204#0" type="passenger"/>
    <trip id="veh181" depart="529.87" departLane="best" from="346406233" to="31748765#1" type="passenger"/>
    <trip id="veh182" depart="532.79" departLane="best" from="-552963268#0" to="-195397541#1" type="passenger"/>
    <trip id="veh183" depart="535.72" departLane="best" from="30705211#0" to="109819340#4" type="passenger"/>
    <trip id="veh184" depart="538.65" departLane="best" from="333369841" to="-51167934#3" type="passenger"/>
    <trip id="veh185" depart="541.58" departLane="best" from="-4615603#0" to="173197451#0" type="passenger"/>
    <trip id="veh186" depart="544.50" departLane="best" from="136571494#6" to="-48907691#0" type="passenger"/>
    <trip id="veh187" depart="547.43" departLane="best" from="-24241762#2" to="189037368#3" type="passenger"/>
    <trip id="veh188" depart="550.36" departLane="best" from="51167934#2" to="31912630#5" type="passenger"/>
    <trip id="veh189" depart="553.29" departLane="best" from="4615624#2" to="298026906#0" type="passenger"/>
    <trip id="veh190" depart="556.21" departLane="best" from="-4615546#0" to="25360667#1" type="passenger"/>
    <trip id="veh191" depart="559.14" departLane="best" from="-109819340#0" to="-4616246#5" type="passenger"/>
    <trip id="veh192" depart="562.07" departLane="best" from="163368988#3" to="286653195" type="passenger"/>
    <trip id="veh193" depart="565.00" departLane="best" from="304627753" to="22954356#1" type="passenger"/>
    <trip id="veh194" depart="567.92" departLane="best" from="168943639#5" to="-4611708#1" type="passenger"/>
    <trip id="veh195" depart="570.85" departLane="best" from="188914559" to="4616518#9" type="passenger"/>
    <trip id="veh196" depart="573.78" departLane="best" from="4610362#1" to="-35578576#0" type="passenger"/>
    <trip id="veh197" depart="576.71" departLane="best" from="-195411605#0" to="24241790#1" type="passenger"/>
    <trip id="veh198" depart="579.63" departLane="best" from="29290632#1" to="110464118#2" type="passenger"/>
    <trip id="veh199" depart="582.56" departLane="best" from="4611708#2" to="4610355#2" type="passenger"/>
    <trip id="veh200" depart="585.49" departLane="best" from="30721662#2" to="-4612969#0" type="passenger"/>
    <trip id="veh201" depart="588.42" departLane="best" from="-35578576#2" to="-15973619#1" type="passenger"/>
    <trip id="veh202" depart="591.34" departLane="best" from="-4611713#1" to="22972473#3" type="passenger"/>
    <trip id="veh203" depart="594.27" departLane="best" from="4615405#2" to="-19801644#0" type="passenger"/>
    <trip id="veh204" depart="597.20" departLane="best" from="156364553#0" to="303406976#1" type="passenger"/>
    <trip id="veh205" depart="600.12" departLane="best" from="-35557161#2" to="340498976#5" type="passenger"/>
    <trip id="veh206" depart="603.05" departLane="best" from="195401017#3" to="-4615407#0" type="passenger"/>
    <trip id="veh207" depart="605.98" departLane="best" from="304627753" to="-128396189#0" type="passenger"/>
    <trip id="veh208" depart="608.91" departLane="best" from="36892597#0" to="4610612" type="passenger"/>
    <trip id="veh209" depart="611.83" departLane="best" from="-23386522#3" to="189133036#3" type="passenger"/>
    <trip id="veh210" depart="614.76" departLane="best" from="-31313667#1" to="54698846#1" type="passenger"/>
    <trip id="veh211" depart="617.69" departLane="best" from="23386522#0" to="-173197451#2" type="passenger"/>
    <trip id="veh212" depart="620.62" departLane="best" from="-4612427#1" to="4615536#0" type="passenger"/>
    <trip id="veh213" depart="623.54" departLane="best" from="171826985#3" to="4612981" type="passenger"/>
    <trip id="veh214" depart="626.47" departLane="best" from="307098733" to="82652409#1" type="passenger"/>
    <trip id="veh215" depart="629.40" departLane="best" from="282627234" to="51167934#5" type="passenger"/>
    <trip id="veh217" depart="635.25" departLane="best" from="333347376" to="23813206#2" type="passenger"/>
    <trip id="veh218" depart="638.18" departLane="best" from="4612968#2" to="25360667#1" type="passenger"/>
    <trip id="veh219" depart="641.11" departLane="best" from="4615603#6" to="4412868" type="passenger"/>
    <trip id="veh220" depart="644.04" departLane="best" from="189133036#0" to="-4615497#8" type="passenger"/>
    <trip id="veh221" depart="646.96" departLane="best" from="-4611713#1" to="30721660#5" type="passenger"/>
    <trip id="veh222" depart="649.89" departLane="best" from="43087099#1" to="243854725#0" type="passenger"/>
    <trip id="veh223" depart="652.82" departLane="best" from="29052147#0" to="-4615603#6" type="passenger"/>
    <trip id="veh224" depart="655.75" departLane="best" from="-194962998#1" to="-4616246#3" type="passenger"/>
    <trip id="veh225" depart="658.67" departLane="best" from="-4615405#9" to="-82658674#0" type="passenger"/>
    <trip id="veh226" depart="661.60" departLane="best" from="-4610472#1" to="339201217#1" type="passenger"/>
    <trip id="veh227" depart="664.53" departLane="best" from="31912630#0" to="-19002363#3" type="passenger"/>
    <trip id="veh228" depart="667.46" departLane="best" from="147066248#0" to="25294729#1" type="passenger"/>
    <trip id="veh229" depart="670.38" departLane="best" from="156364556#1" to="-4610600" type="passenger"/>
    <trip id="veh230" depart="673.31" departLane="best" from="156364562#1" to="47016365#1" type="passenger"/>
    <trip id="veh231" depart="676.24" departLane="best" from="273390876#0" to="340498976#4" type="passenger"/>
    <trip id="veh232" depart="679.17" departLane="best" from="4615406#4" to="4610480" type="passenger"/>
    <trip id="veh233" depart="682.09" departLane="best" from="-84960597#0" to="-128396189#1" type="passenger"/>
    <trip id="veh234" depart="685.02" departLane="best" from="-495066404" to="4610362#2" type="passenger"/>
    <trip id="veh235" depart="687.95" departLane="best" from="4615405#7" to="54048862#0" type="passenger"/>
    <trip id="veh236" depart="690.88" departLane="best" from="156364559#7" to="4610351#1" type="passenger"/>
    <trip id="veh237" depart="693.80" departLane="best" from="24241797#3" to="29052147#3" type="passenger"/>
    <trip id="veh238" depart="696.73" departLane="best" from="-4412868" to="-4612966#0" type="passenger"/>
    <trip id="veh239" depart="699.66" departLane="best" from="165450001#7" to="-15977422#0" type="passenger"/>
    <trip id="veh240" depart="702.59" departLane="best" from="-4790825#2" to="31912630#8" type="passenger"/>
    <trip id="veh241" depart="705.51" departLane="best" from="139877314#2" to="-35557143#4" type="passenger"/>
    <trip id="veh242" depart="708.44" departLane="best" from="182620302#2" to="-28016312#3" type="passenger"/>
    <trip id="veh243" depart="711.37" departLane="best" from="288750967" to="-15973619#5" type="passenger"/>
    <trip id="veh244" depart="714.29" departLane="best" from="122820534#0" to="281095736#3" type="passenger"/>
    <trip id="veh245" depart="717.22" departLane="best" from="-147066248#4" to="309147331#0" type="passenger"/>
    <trip id="veh246" depart="720.15" departLane="best" from="-243854725#3" to="22055007#1" type="passenger"/>
    <trip id="veh247" depart="723.08" departLane="best" from="-168940071#1" to="15973619#8" type="passenger"/>
    <trip id="veh248" depart="726.00" departLane="best" from="-43159545#1" to="103360642#2" type="passenger"/>
    <trip id="veh249" depart="728.93" departLane="best" from="389101365#0" to="15973619#8" type="passenger"/>
    <trip id="veh250" depart="731.86" departLane="best" from="36892597#1" to="4615492#1" type="passenger"/>
    <trip id="veh251" depart="734.79" departLane="best" from="-4612427#2" to="-23121445#1" type="passenger"/>
    <trip id="veh252" depart="737.71" departLane="best" from="-128396190#4" to="25086769#1" type="passenger"/>
    <trip id="veh253" depart="740.64" departLane="best" from="84960597#1" to="128396190#4" type="passenger"/>
    <trip id="veh254" depart="743.57" departLane="best" from="301241681#1" to="4611713#1" type="passenger"/>
    <trip id="veh255" depart="746.50" departLane="best" from="301241681#5" to="4610362#3" type="passenger"/>
    <trip id="veh256" depart="749.42" departLane="best" from="54781811#0" to="-4588219" type="passenger"/>
    <trip id="veh257" depart="752.35" departLane="best" from="-136571494#0" to="-31912630#1" type="passenger"/>
    <trip id="veh258" depart="755.28" departLane="best" from="-24241762#2" to="316746323#1" type="passenger"/>
    <trip id="veh259" depart="758.21" departLane="best" from="24914141#0" to="-4612966#0" type="passenger"/>
    <trip id="veh260" depart="761.13" departLane="best" from="31609650#5" to="4610607" type="passenger"/>
    <trip id="veh261" depart="764.06" departLane="best" from="-310176513#0" to="291270698" type="passenger"/>
    <trip id="veh262" depart="766.99" departLane="best" from="35578557" to="-24992424#2" type="passenger"/>
    <trip id="veh263" depart="769.92" departLane="best" from="4611708#3" to="60333309#1" type="passenger"/>
    <trip id="veh264" depart="772.84" departLane="best" from="-23386522#5" to="-15973619#3" type="passenger"/>
    <trip id="veh265" depart="775.77" departLane="best" from="606078066#0" to="168943642#0" type="passenger"/>
    <trip id="veh266" depart="778.70" departLane="best" from="328426193#0" to="-22954356#0" type="passenger"/>
    <trip id="veh267" depart="781.63" departLane="best" from="312533962#1" to="303406976#1" type="passenger"/>
    <trip id="veh268" depart="784.55" departLane="best" from="4615405#2" to="29052147#1" type="passenger"/>
    <trip id="veh269" depart="787.48" departLane="best" from="454285423#0" to="128396189#2" type="passenger"/>
    <trip id="veh270" depart="790.41" departLane="best" from="15973619#7" to="156364570#2" type="passenger"/>
    <trip id="veh271" depart="793.34" departLane="best" from="22954356#0" to="112128825#1" type="passenger"/>
    <trip id="veh272" depart="796.26" departLane="best" from="-23386522#10" to="55741054" type="passenger"/>
    <trip id="veh273" depart="799.19" departLane="best" from="296122995#0" to="4615407#1" type="passenger"/>
    <trip id="veh274" depart="802.12" departLane="best" from="31912630#1" to="19047484#1" type="passenger"/>
    <trip id="veh275" depart="805.05" departLane="best" from="340498982#1" to="60333311#1" type="passenger"/>