<?xml version="1.0" encoding="UTF-8"?>

<!-- generated on Sat Dec  8 18:06:27 2018 by Eclipse SUMO polyconvert Version 1.0.1
<configuration xmlns:xsi="http://www.w3.org/2001/XMLSchema-instance" xsi:noNamespaceSchemaLocation="http://sumo.dlr.de/xsd/polyconvertConfiguration.xsd">

    <input>
        <net-file value="/home/jordan/Downloads/sumo-0.30.0/tools/2018-12-08-18-06-20/osm.net.xml"/>
        <osm-files value="osm_bbox.osm.xml"/>
        <osm.keep-full-type value="true"/>
        <type-file value="/home/jordan/MEGA/Universita_mia/Magistrale/Tesi/sumo-1.0.1/data/typemap/osmPolyconvert.typ.xml"/>
    </input>

    <output>
        <output-file value="/home/jordan/Downloads/sumo-0.30.0/tools/2018-12-08-18-06-20/osm.poly.xml"/>
    </output>

    <processing>
        <poi-layer-offset value="5"/>
    </processing>

    <report>
        <verbose value="true"/>
    </report>

</configuration>
-->

<additional xmlns:xsi="http://www.w3.org/2001/XMLSchema-instance" xsi:noNamespaceSchemaLocation="http://sumo.dlr.de/xsd/additional_file.xsd">
    <location netOffset="-390409.56,-5819108.12" convBoundary="-9383.58,-3727.27,16495.87,13188.94" origBoundary="13.242202,52.477280,13.628703,52.627610" projParameter="+proj=utm +zone=33 +ellps=WGS84 +datum=WGS84 +units=m +no_defs"/>

    <poly id="100575040" type="leisure.park" color="207,245,201" fill="1" layer="-2.00" shape="934.106766,1513.718669 933.213400,1513.527068 927.208861,1512.091317 921.257356,1510.598758 928.294440,1483.936577 936.357805,1455.193026 913.397144,1449.404315 915.276242,1437.433791 906.626132,1436.067904 901.400830,1437.942048 896.673612,1440.851139 899.299575,1446.935304 891.352986,1450.049392 885.096074,1452.536218 882.746025,1446.957806 872.493460,1451.981433 874.062669,1453.571228 873.624357,1455.839869 871.595135,1456.764005 870.995391,1460.015463 864.714096,1458.040676 864.982952,1456.699390 853.354850,1459.683860 844.663663,1461.968860 843.904531,1463.543588 840.268036,1464.525687 838.228034,1463.435974 834.310260,1450.225459 834.970140,1449.988251 834.134890,1446.913319 832.498969,1442.320555 821.111197,1447.569802 808.540851,1453.357218 805.392569,1454.929390 803.021536,1458.186825 806.279969,1463.711638 800.987545,1466.533232 801.614783,1467.576423 799.008732,1475.835392 796.536997,1483.724167 794.463491,1490.291034 790.491062,1488.676767 786.068734,1491.556939 803.942656,1508.507805 809.594730,1509.962365 817.493987,1512.056925 824.353948,1513.807371 830.122074,1515.292759 835.119428,1516.606102 840.901362,1518.102323 857.346248,1522.366224 873.998685,1526.503167 890.801322,1530.681342 896.726173,1532.196710 902.050346,1533.558504 907.790793,1535.022341 914.418557,1536.711299 919.456567,1538.023824 925.987868,1539.648172 927.052798,1539.924986 928.910848,1532.817707 934.106766,1513.718669"/>
    <poly id="100575042" type="building.residential" color="255,230,230" fill="1" layer="-1.00" shape="902.180262,1557.146204 907.790793,1535.022341 902.050346,1533.558504 901.435158,1535.808814 901.879559,1535.954736 900.502306,1541.482358 900.929199,1542.062647 900.228390,1542.901647 898.929602,1542.485371 899.067488,1541.970440 895.278556,1540.975164 895.139319,1541.734934 893.405382,1541.283809 893.212827,1540.253213 894.107906,1539.910642 895.378588,1534.474406 896.095575,1534.669915 896.726173,1532.196710 890.801322,1530.681342 888.680759,1539.107525 885.264494,1552.759080 902.180262,1557.146204"/>
    <poly id="100950874" type="building.commercial" color="255,230,230" fill="1" layer="-1.00" shape="1238.761041,1220.810460 1219.431240,1212.269334 1215.286371,1201.945624 1227.019327,1181.578409 1240.374252,1188.805171 1238.761041,1220.810460"/>
    <poly id="100950876" type="building.commercial" color="255,230,230" fill="1" layer="-1.00" shape="1277.098570,1162.577352 1273.164888,1169.162872 1265.945332,1181.240218 1263.530022,1185.277325 1263.962287,1229.366436 1264.166465,1234.914591 1265.535520,1238.812349 1267.491247,1242.229772 1270.128481,1245.465206 1275.123956,1249.449668 1278.301180,1251.015151 1298.113318,1258.666755 1329.938451,1191.063994 1277.098570,1162.577352"/>
    <poly id="100950877" type="building.commercial" color="255,230,230" fill="1" layer="-1.00" shape="1308.948103,1197.670499 1289.253627,1239.545175 1283.001735,1237.368902 1280.325302,1235.736701 1278.721583,1232.890124 1277.670629,1227.416335 1279.379909,1195.753899 1304.780749,1195.837572 1308.948103,1197.670499"/>
    <poly id="100950878" type="building.commercial" color="255,230,230" fill="1" layer="-1.00" shape="1247.733269,1238.872344 1253.054207,1225.045424 1253.203286,1221.659336 1254.472733,1193.133471 1254.393155,1189.229444 1252.850572,1184.545468 1250.363956,1180.449884 1246.411305,1176.664925 1242.461743,1174.860614 1231.273606,1168.932341 1220.971688,1163.485223 1201.717291,1197.616846 1199.944102,1203.676126 1200.078157,1209.426130 1201.769703,1215.931721 1208.624201,1223.558209 1247.733269,1238.872344"/>
    <poly id="101309884" type="landuse.commercial" color="209,209,204" fill="1" layer="-3.00" shape="1927.013322,1540.681368 1876.081286,1568.963859 1875.217021,1569.784055 1875.009063,1570.511921 1875.344912,1571.895478 1906.690008,1639.918697 1925.105920,1680.184936 2006.143293,1717.683945 2046.644626,1696.887020 2047.882776,1692.386552 1985.492229,1614.584765 1938.449026,1557.332691 1927.013322,1540.681368"/>
    <poly id="101309886" type="building.apartments" color="255,230,230" fill="1" layer="-1.00" shape="2170.938141,1619.871187 2186.654043,1607.998311 2176.008307,1593.899571 2178.818847,1591.768197 2172.241691,1583.077218 2154.934557,1560.166995 2143.652520,1545.225461 2134.419269,1552.204745 2173.248607,1603.607683 2157.599581,1615.434625 2164.582374,1624.673062 2170.938141,1619.871187"/>
    <poly id="102522991" type="landuse.construction" color="194,194,130" fill="1" layer="-3.00" shape="1622.493137,881.557151 1613.146640,893.280232 1541.735723,903.045027 1524.707211,893.617339 1514.045040,885.696100 1477.662819,858.691270 1479.306805,850.754403 1511.938222,806.525407 1518.137868,811.852241 1538.884380,814.721644 1572.504915,838.082353 1584.067564,819.733933 1589.009552,818.823769 1630.386576,848.256394 1627.407743,852.617296 1635.552845,859.370227 1622.493137,881.557151"/>
    <poly id="102864701" type="building.residential" color="255,230,230" fill="1" layer="-1.00" shape="1418.243820,1578.177682 1409.062697,1566.273694 1408.811112,1565.945424 1411.393899,1563.963289 1411.645484,1564.291559 1412.192903,1563.878871 1411.954885,1563.550302 1414.524107,1561.568468 1414.775692,1561.896738 1415.303251,1561.506745 1415.051420,1561.167353 1417.620645,1559.185520 1417.886289,1559.535735 1418.440246,1559.111776 1418.174602,1558.761562 1420.750859,1556.790704 1421.016502,1557.140918 1422.852543,1555.765048 1431.732068,1567.842637 1424.270728,1573.571250 1424.124339,1573.396443 1422.476038,1574.668017 1422.608613,1574.832002 1420.426216,1576.504842 1418.243820,1578.177682"/>
    <poly id="102864702" type="building.residential" color="255,230,230" fill="1" layer="-1.00" shape="1412.276816,1604.848817 1418.650783,1599.978775 1410.174017,1588.927177 1409.399888,1589.522915 1407.025124,1586.481911 1407.379007,1586.218158 1407.532426,1586.403937 1409.407679,1584.960430 1409.288671,1584.796145 1410.936720,1583.513444 1411.083355,1583.699373 1418.243820,1578.177682 1409.062697,1566.273694 1392.764020,1578.729508 1412.276816,1604.848817"/>
    <poly id="104786904" type="natural.grassland" color="140,196,107" fill="1" layer="-4.00" shape="599.057685,859.158625 604.394925,797.314815 584.998166,795.654473 579.654382,857.498459 599.057685,859.158625"/>
    <poly id="104786906" type="building.yes" color="255,230,230" fill="1" layer="-1.00" shape="613.249372,963.698626 676.573616,975.287064 669.568968,985.379827 665.881052,990.168840 661.407803,995.965684 659.501254,998.445043 645.402716,997.523478 634.023173,996.775143 634.623936,989.606702 656.131131,991.275908 657.461583,984.258156 617.602808,977.533569 616.085980,978.613319 614.236913,987.946047 615.267751,989.124895 615.066135,990.130870 614.219699,990.528044 613.998480,995.228833 610.511341,995.005982 607.207384,994.779057 607.608632,992.678130 611.467303,973.296927 613.076148,963.235119 613.249372,963.698626"/>
    <poly id="104786907" type="building.residential" color="255,230,230" fill="1" layer="-1.00" shape="642.022308,945.343263 640.747129,958.201803 601.057191,950.839311 604.155836,918.655970 617.783896,919.777062 618.979904,906.107959 632.287631,907.169455 631.150341,919.513058 623.332541,918.685502 622.047831,932.334322 629.943314,932.993232 629.482180,938.200101 629.017519,944.163728 642.022308,945.343263"/>
    <poly id="104786910" type="building.yes" color="255,230,230" fill="1" layer="-1.00" shape="719.735663,972.135247 732.407105,955.573849 716.311510,942.990191 717.017433,942.073159 716.236929,941.467362 719.311272,937.470964 720.022447,938.011537 720.965942,936.788779 724.922986,939.827684 725.681706,938.842715 742.463162,951.744989 749.722771,942.425606 759.776549,945.518222 739.606364,971.637928 732.118261,981.363002 719.735663,972.135247"/>
    <poly id="104786915" type="building.yes" color="255,230,230" fill="1" layer="-1.00" shape="717.248238,965.280280 703.720559,962.865878 702.603646,969.111060 716.106149,971.615039 717.248238,965.280280"/>
    <poly id="104786916" type="building.yes" color="255,230,230" fill="1" layer="-1.00" shape="745.541704,897.540628 740.701520,914.628969 778.782191,925.633699 783.583125,911.662009 780.917959,910.552818 778.363661,908.628849 775.661447,906.463359 771.961664,904.920928 757.650964,900.876881 745.541704,897.540628"/>
    <poly id="104991245" type="building.yes" color="255,230,230" fill="1" layer="-1.00" shape="637.860441,1276.338670 624.285213,1280.902610 627.867609,1291.516570 641.688515,1332.470389 655.263860,1327.917618 637.860441,1276.338670"/>
    <poly id="104991246" type="building.yes" color="255,230,230" fill="1" layer="-1.00" shape="527.839163,1324.667071 526.556640,1321.023507 541.776434,1315.643731 543.070534,1319.198019 527.839163,1324.667071"/>
    <poly id="105210597" type="building.residential" color="255,230,230" fill="1" layer="-1.00" shape="1335.441573,1600.860731 1372.931924,1570.109909 1364.085791,1561.392217 1339.864981,1580.521834 1336.400887,1576.714886 1330.797211,1581.734920 1329.274205,1580.077198 1323.374805,1584.614165 1324.144373,1585.654271 1327.684381,1590.438762 1335.441573,1600.860731"/>
    <poly id="105733781" type="building.apartments" color="255,230,230" fill="1" layer="-1.00" shape="437.847381,1397.566516 438.281734,1403.654796 432.197609,1403.534481 432.439820,1397.653673 420.646993,1397.204396 421.116373,1383.551409 436.752685,1384.081929 437.847381,1397.566516"/>
    <poly id="105733782" type="building.apartments" color="255,230,230" fill="1" layer="-1.00" shape="420.646993,1397.204396 420.326860,1403.242729 418.317570,1403.231887 418.605319,1410.658755 418.637554,1412.104633 412.660990,1411.937434 412.840793,1402.040926 413.741820,1401.965199 414.253965,1399.973055 412.807123,1397.790907 402.359749,1397.411825 401.470026,1399.212092 401.627090,1401.690060 401.342411,1401.707535 401.357045,1411.800007 395.600541,1411.761453 396.218657,1399.607380 397.114749,1382.873637 421.116373,1383.551409 420.646993,1397.204396"/>
    <poly id="105733786" type="building.apartments" color="255,230,230" fill="1" layer="-1.00" shape="464.996604,1436.242086 463.607986,1399.818797 462.105170,1399.996948 462.031252,1398.507488 452.088380,1398.228334 452.211837,1400.417733 448.771378,1400.449903 450.151397,1431.609996 451.609195,1431.544122 451.845086,1436.646463 464.996604,1436.242086"/>
    <poly id="105733787" type="building.apartments" color="255,230,230" fill="1" layer="-1.00" shape="462.031252,1398.507488 462.799490,1384.858977 436.752685,1384.081929 437.847381,1397.566516 452.088380,1398.228334 462.031252,1398.507488"/>
    <poly id="105733790" type="building.dormitory" color="255,230,230" fill="1" layer="-1.00" shape="503.543727,1405.872648 508.290222,1419.376044 492.761647,1421.847369 484.992780,1422.877291 483.847876,1417.795203 494.299693,1415.025228 492.280693,1409.094654 503.543727,1405.872648"/>
    <poly id="105733791" type="building.apartments" color="255,230,230" fill="1" layer="-1.00" shape="494.449679,1463.493991 466.057267,1464.649637 465.525348,1452.354292 491.632158,1451.271823 494.449679,1463.493991"/>
    <poly id="105733792" type="building.apartments" color="255,230,230" fill="1" layer="-1.00" shape="489.689240,1399.404557 462.031252,1398.507488 462.799490,1384.858977 496.561554,1385.853742 503.543727,1405.872648 492.280693,1409.094654 489.689240,1399.404557"/>
    <poly id="105733793" type="building.apartments" color="255,230,230" fill="1" layer="-1.00" shape="513.115776,1433.077981 522.666632,1460.250418 521.017238,1462.379157 494.449679,1463.493991 491.632158,1451.271823 490.087080,1444.373712 497.137624,1444.005205 497.420702,1451.532327 508.123598,1451.505319 507.915267,1447.637533 504.688359,1441.411160 503.947085,1441.650227 502.191158,1436.559492 500.519292,1433.414225 513.115776,1433.077981"/>
    <poly id="105733794" type="building.apartments" color="255,230,230" fill="1" layer="-1.00" shape="465.525348,1452.354292 464.996604,1436.242086 451.845086,1436.646463 448.890773,1436.868097 449.251829,1448.499590 448.131133,1449.681846 419.968887,1450.509924 420.460638,1466.478295 466.057267,1464.649637 465.525348,1452.354292"/>
    <poly id="105733795" type="building.apartments" color="255,230,230" fill="1" layer="-1.00" shape="508.290222,1419.376044 513.115776,1433.077981 500.519292,1433.414225 493.824315,1433.596763 492.761647,1421.847369 508.290222,1419.376044"/>
    <poly id="105733796" type="building.yes" color="255,230,230" fill="1" layer="-1.00" shape="419.456569,1436.967843 418.637554,1412.104633 418.605319,1410.658755 425.822107,1410.742675 426.257357,1436.660441 419.456569,1436.967843"/>
    <poly id="105733797" type="building.apartments" color="255,230,230" fill="1" layer="-1.00" shape="351.351794,1410.444932 356.707781,1383.096034 359.604807,1381.217600 397.114749,1382.873637 396.218657,1399.607380 375.787204,1398.927999 375.512716,1404.575851 373.775507,1406.417280 373.087212,1411.161892 373.491100,1411.620246 373.209130,1413.585006 364.233488,1412.850479 364.427169,1412.100605 362.180529,1411.794632 351.351794,1410.444932"/>
    <poly id="105742815" type="historic.citywalls" color="128,255,128" fill="0" layer="-1.00" shape="1997.067689,534.959225 1986.494188,562.899040 1978.445645,591.128362"/>
    <poly id="105742816" type="historic.citywalls" color="128,255,128" fill="0" layer="-1.00" shape="1976.327642,602.558358 1971.033240,622.971300"/>
    <poly id="106845276" type="building.yes" color="255,230,230" fill="1" layer="-1.00" shape="394.046434,1465.642914 367.577268,1466.300009 372.968053,1428.034103 395.135689,1426.527111 394.046434,1465.642914"/>
    <poly id="109089263" type="building.residential" color="255,230,230" fill="1" layer="-1.00" shape="987.966169,1388.406303 989.686789,1406.005427 991.427055,1405.822173 992.576835,1419.105312 991.914231,1419.220156 990.593694,1426.393377 996.224090,1427.481422 1004.307615,1390.747922 1003.799315,1390.169430 1004.617721,1387.591929 1002.290203,1387.921731 1001.755137,1387.054514 987.966169,1388.406303"/>
    <poly id="109089264" type="building.residential" color="255,230,230" fill="1" layer="-1.00" shape="970.059520,1420.762010 975.697945,1420.681453 975.687337,1420.203200 981.075497,1420.161583 981.085364,1420.606469 986.412962,1420.588457 984.766833,1402.676107 983.519451,1401.824691 970.593567,1402.612134 969.235547,1403.810658 970.059520,1420.762010"/>
    <poly id="113589278" type="leisure.playground" color="207,245,201" fill="1" layer="-2.00" shape="826.981705,1493.385425 825.028665,1492.238148 824.341423,1489.104291 825.284884,1485.745043 827.440583,1483.182315 831.135835,1480.262692 835.142331,1478.827263 838.742936,1478.368955 841.514582,1478.785889 843.339867,1480.904114 843.982046,1482.926210 842.066508,1486.218021 839.603193,1488.987871 837.754721,1491.020772 834.995109,1492.673314 831.764812,1493.913462 829.074961,1493.817419 826.981705,1493.385425"/>
    <poly id="113597139" type="building.apartments" color="255,230,230" fill="1" layer="-1.00" shape="2859.644758,654.869650 2855.675814,656.836678 2853.588696,652.642597 2857.557642,650.675567 2849.492423,634.438315 2845.503354,636.416918 2843.423247,632.233815 2847.419104,630.255063 2840.958254,617.243207 2836.969174,619.221816 2834.881541,615.005498 2838.863839,613.027035 2830.819584,596.822737 2826.844060,598.801058 2824.763438,594.595719 2828.732422,592.628666 2822.285776,579.649905 2818.303456,581.628381 2816.180654,577.357199 2820.162977,575.378721 2812.139687,559.207376 2808.164139,561.185712 2806.055134,556.925361 2810.024142,554.958293 2803.598484,542.012479 2799.622925,543.990822 2797.500335,539.730770 2801.482682,537.752278 2793.452733,521.592232 2789.483703,523.559313 2787.354069,519.288292 2791.329644,517.309939 2788.014022,510.638989 2798.330044,505.551365 2873.248821,656.453768 2862.967463,661.562744 2859.644758,654.869650"/>
    <poly id="113706746" type="landuse.village_green" color="242,242,204" fill="1" layer="-3.00" shape="2991.810665,409.090356 3016.200051,403.396522 3013.012836,389.823619 2988.623385,395.517468 2991.810665,409.090356"/>
    <poly id="113706746#1" type="leisure.playground" color="207,245,201" fill="1" layer="-2.00" shape="2991.810665,409.090356 3016.200051,403.396522 3013.012836,389.823619 2988.623385,395.517468 2991.810665,409.090356"/>
    <poly id="113716006" type="landuse.village_green" color="242,242,204" fill="1" layer="-3.00" shape="2988.368094,419.035320 3115.986255,392.246656 3112.040368,373.115343 3110.439944,369.444695 3107.677696,367.290380 3105.341394,366.617884 3102.370864,366.749224 2977.069243,394.889860 2985.174159,419.505418 2988.368094,419.035320"/>
    <poly id="114315874" type="man_made.pier" color="255,230,230" fill="1" layer="-1.00" shape="2166.390127,403.999725 2133.374611,406.971637 2133.115864,404.150925 2166.138184,401.178862 2166.390127,403.999725"/>
    <poly id="11548677" type="waterway.riverbank" color="181,209,209" fill="0" layer="-4.00" shape="1749.724310,203.434294 1719.844228,186.377116 1587.142724,116.537929 1579.628595,109.515196 1569.224785,101.988686 1566.520386,100.034232 1550.128145,88.177664 1508.317948,59.723168 1456.122114,33.523457 1443.779963,28.933153 1421.700980,20.908014 1415.040116,17.494268 1412.636914,16.579235 1391.013979,11.993706 1327.961273,4.239821 1282.424999,6.336825 1261.636679,8.187403 1257.370288,8.982782 1254.838969,9.951219 1251.783720,11.788067 1248.835527,14.167801 1246.733501,16.128231 1245.140170,18.066284 1243.882689,19.841124 1225.447387,55.323003 1217.800947,69.969130 1103.852581,265.866464 1098.318813,275.636643 1045.064792,381.838657 1030.710235,423.963162 992.509676,519.149770 984.467216,535.463115 906.316850,686.840709 901.595184,723.989323 873.578416,829.722631 855.056524,880.297133 856.685902,883.977585 854.161725,888.607079 841.006732,909.707821 839.223972,909.513727 830.142460,925.750301 776.109363,965.118284 682.650655,1077.626372 670.376812,1092.509930 658.255478,1106.922768 599.535139,1178.300066 602.198071,1180.533097 592.637460,1192.263000 589.941599,1190.075218 587.669060,1194.098372 582.278603,1196.488398"/>
    <poly id="120447353" type="building.yes" color="255,230,230" fill="1" layer="-1.00" shape="2030.168888,259.849789 2027.348664,260.646131 2025.421685,261.311584 2022.546707,252.194510 2014.624089,254.972326 2013.466215,252.327149 2013.943835,252.127492 2011.701344,245.845179 2008.096489,247.081608 2004.184284,242.360438 1991.332511,226.262997 1984.234836,231.982663 1971.770704,217.156420 1981.385884,208.911124 1982.031602,209.564592 1988.074043,204.635901 1985.400705,201.612299 1984.812977,195.872280 1989.521635,192.653146 1993.948021,193.891225 2003.670957,205.695402 2004.166251,205.372953 2008.847911,211.434783 2007.693058,212.328092 2012.173094,218.483373 2038.315808,209.775118 2037.872045,208.115733 2042.145290,206.708868 2042.667304,208.221878 2046.008779,207.046895 2048.597225,215.791937 2046.280569,216.643976 2052.141613,234.374975 2048.569691,235.566140 2049.046399,237.180293 2042.265319,239.387754 2040.532425,239.926538 2047.667084,262.792738 2032.600436,267.941745 2030.168888,259.849789"/>
    <poly id="120447353#1" type="tourism.museum" color="207,245,201" fill="1" layer="-2.00" shape="2030.168888,259.849789 2027.348664,260.646131 2025.421685,261.311584 2022.546707,252.194510 2014.624089,254.972326 2013.466215,252.327149 2013.943835,252.127492 2011.701344,245.845179 2008.096489,247.081608 2004.184284,242.360438 1991.332511,226.262997 1984.234836,231.982663 1971.770704,217.156420 1981.385884,208.911124 1982.031602,209.564592 1988.074043,204.635901 1985.400705,201.612299 1984.812977,195.872280 1989.521635,192.653146 1993.948021,193.891225 2003.670957,205.695402 2004.166251,205.372953 2008.847911,211.434783 2007.693058,212.328092 2012.173094,218.483373 2038.315808,209.775118 2037.872045,208.115733 2042.145290,206.708868 2042.667304,208.221878 2046.008779,207.046895 2048.597225,215.791937 2046.280569,216.643976 2052.141613,234.374975 2048.569691,235.566140 2049.046399,237.180293 2042.265319,239.387754 2040.532425,239.926538 2047.667084,262.792738 2032.600436,267.941745 2030.168888,259.849789"/>
    <poly id="120447362" type="building.yes" color="255,230,230" fill="1" layer="-1.00" shape="2023.582728,239.397367 2022.837171,237.288382 2015.097858,228.011067 2018.048905,225.442570 2025.353216,223.256969 2025.940700,224.968835 2030.479297,223.589515 2029.945070,221.520399 2035.397716,219.720423 2036.161777,222.363124 2038.466079,221.566989 2042.357487,234.000012 2028.107600,238.630359 2028.012986,238.031551 2023.582728,239.397367"/>
    <poly id="120447362#1" type="tourism.museum" color="207,245,201" fill="1" layer="-2.00" shape="2023.582728,239.397367 2022.837171,237.288382 2015.097858,228.011067 2018.048905,225.442570 2025.353216,223.256969 2025.940700,224.968835 2030.479297,223.589515 2029.945070,221.520399 2035.397716,219.720423 2036.161777,222.363124 2038.466079,221.566989 2042.357487,234.000012 2028.107600,238.630359 2028.012986,238.031551 2023.582728,239.397367"/>
    <poly id="120456813" type="landuse.commercial" color="209,209,204" fill="1" layer="-3.00" shape="393.274043,1206.674740 397.193915,1150.815469 328.296626,1143.105054 328.097876,1146.670344 327.693344,1153.789952 327.487562,1157.344270 326.867907,1167.295107 328.026198,1167.491817 326.885286,1183.285185 325.937918,1195.279698 325.169313,1195.207826 324.650859,1204.522128 356.398067,1205.505290 381.080321,1205.922907 393.274043,1206.674740"/>
    <poly id="120456814" type="amenity.university" color="237,199,199" fill="1" layer="-1.00" shape="408.881454,977.230395 409.014643,978.028617 446.093456,981.219236 452.711418,981.817308 479.942372,984.159389 484.380940,929.891076 502.651070,931.275650 511.259951,931.962990 514.186497,932.309534 523.902503,933.027877 523.318819,939.127701 521.971246,951.464895 521.533059,956.782544 521.514590,957.172423 523.671986,957.424824 522.957365,962.826523 522.922602,963.094361 521.739053,974.871520 510.325107,973.801533 509.141208,986.780491 547.895888,989.945677 549.025586,990.076312 554.410293,931.013262 554.781813,926.053187 555.811046,916.182303 558.391967,881.184028 657.503167,889.994979 670.192541,803.729494 677.784408,717.766588 526.860232,704.622636 522.264436,756.134710 512.854535,896.886497 505.718606,896.199728 487.830729,895.830367 454.087289,892.776512 432.249190,890.904124 431.466453,899.946101 423.944532,899.301437 419.078521,955.682480 419.007676,956.462996 417.531952,956.340104 397.611830,954.625424 396.969616,962.050766 404.967606,962.740411 405.085624,961.335694 409.370315,961.707535 409.246008,963.134647 410.062139,963.205475 408.891393,976.762811 408.881454,977.230395"/>
    <poly id="121174717" type="leisure.pitch" color="207,245,201" fill="1" layer="-2.00" shape="2056.575139,585.684753 2072.962559,591.578678 2076.098519,582.908267 2059.711075,577.014332 2056.575139,585.684753"/>
    <poly id="121174717#1" type="sport.beachvolleyball" color="79,230,125" fill="1" layer="-2.00" shape="2056.575139,585.684753 2072.962559,591.578678 2076.098519,582.908267 2059.711075,577.014332 2056.575139,585.684753"/>
    <poly id="121673258" type="landuse.construction" color="194,194,130" fill="1" layer="-3.00" shape="988.716586,585.665687 986.683228,590.707067 984.752582,589.358924 979.941780,595.886226 996.478911,608.160524 972.629807,645.132257 959.104621,641.025673 946.611824,643.984515 941.856516,653.926806 947.817848,687.644774 951.737658,699.408739 970.560000,700.871854 967.662079,704.574850 980.872771,707.364240 993.459221,711.391542 1006.484314,716.221468 1030.110893,730.775647 1057.598719,691.364505 1078.150572,706.242983 1060.519442,731.270145 1174.553076,798.982057 1257.803121,662.752067 1271.401983,630.915728 1198.306327,584.951176 1119.071994,534.672569 1113.345917,532.373560 1106.541308,531.645181 1100.189450,534.500998 1079.027599,562.288016 1019.137710,521.452654 1014.193340,519.203198 1010.668540,524.644838 1021.984898,533.830208 1018.214828,540.456805 1019.981277,542.053409 1017.396096,544.558784 1012.972533,546.203575 1008.675090,545.575544 984.670794,577.710131 987.946096,581.532172 988.716586,585.665687"/>
    <poly id="121673264" type="landuse.construction" color="194,194,130" fill="1" layer="-3.00" shape="1370.528395,328.101982 1280.378353,437.297554 1241.765777,414.015754 1188.215004,372.203541 1218.752558,330.255630 1247.681437,294.741869 1284.061660,252.019788 1312.173462,276.246213 1370.528395,328.101982"/>
    <poly id="121674885" type="building.yes" color="255,230,230" fill="1" layer="-1.00" shape="872.160156,329.078078 862.832845,324.511351 859.987714,330.294095 869.315017,334.860817 870.763493,331.913234 872.160156,329.078078"/>
    <poly id="121705490" type="amenity.school" color="237,199,199" fill="1" layer="-1.00" shape="2536.030666,466.600223 2495.098129,486.556376 2488.669139,473.811312 2477.367379,479.755713 2473.542821,472.183636 2417.900827,500.863395 2416.036207,496.620108 2392.404943,452.538217 2416.125015,439.867948 2436.449492,428.062129 2539.756492,367.773512 2539.957622,367.657842 2542.386211,366.336236 2542.728375,366.150719 2549.903645,358.371596 2583.696418,416.753575 2573.799416,422.066174 2583.461855,442.374158 2676.130482,398.166393 2679.406132,399.263283 2698.677309,433.104196 2694.247097,435.404114 2730.010522,497.093394 2547.923464,599.213606 2529.752103,563.847013 2532.491536,559.669967 2515.354964,525.070855 2570.272351,495.528971 2565.068256,486.017404 2550.219816,493.374428 2536.030666,466.600223"/>
    <poly id="121717655" type="building.yes" color="255,230,230" fill="1" layer="-1.00" shape="820.399914,913.136506 828.227833,900.666636 794.823148,879.843224 790.530823,892.267989 810.905393,904.968273 809.862702,906.616066 820.399914,913.136506"/>
    <poly id="121717655#1" type="shop.art" color="237,199,255" fill="1" layer="-1.00" shape="820.399914,913.136506 828.227833,900.666636 794.823148,879.843224 790.530823,892.267989 810.905393,904.968273 809.862702,906.616066 820.399914,913.136506"/>
    <poly id="121717656" type="landuse.construction" color="194,194,130" fill="1" layer="-3.00" shape="865.693169,909.337774 856.013219,921.859828 797.637127,976.268398 785.051504,992.727567 824.506052,1023.754096 895.007807,928.182686 884.093254,921.169722 870.596166,912.489327 865.693169,909.337774"/>
    <poly id="121717767" type="leisure.park" color="207,245,201" fill="1" layer="-2.00" shape="918.599378,999.921932 943.405674,1018.744746 945.111779,1016.403480 943.987649,1014.992955 943.602533,1013.543780 943.714165,1012.150351 944.542732,1010.640869 945.883715,1009.587380 947.491762,1009.251261 948.827197,1009.477572 950.010537,1010.497318 952.228199,1007.655092 954.873042,1009.688416 955.625503,1008.725877 957.390088,1007.796526 959.177123,1007.879291 960.817242,1008.989056 961.874758,1010.456701 962.060034,1012.077224 961.605102,1013.600670 960.819211,1014.586205 964.051581,1017.096117 961.880175,1019.881674 963.030327,1020.935542 963.642902,1022.235014 963.384473,1023.742974 962.610795,1024.973045 961.323596,1026.003082 959.626615,1026.307785 958.307592,1025.903066 957.391935,1025.322485 955.460090,1027.891307 973.748617,1041.762398 931.633314,1097.266489 942.912176,1105.729181 1008.459789,1019.649917 937.529657,973.563435 918.599378,999.921932"/>
    <poly id="123750257" type="amenity.nightclub" color="237,199,199" fill="1" layer="-1.00" shape="1628.434916,435.722914 1624.338196,423.873342 1605.265207,429.857549 1586.901526,436.605120 1590.969471,448.377405 1609.330250,441.807952 1628.434916,435.722914"/>
    <poly id="123750257#1" type="building.residential" color="255,230,230" fill="1" layer="-1.00" shape="1628.434916,435.722914 1624.338196,423.873342 1605.265207,429.857549 1586.901526,436.605120 1590.969471,448.377405 1609.330250,441.807952 1628.434916,435.722914"/>
    <poly id="125513279" type="building.yes" color="255,230,230" fill="1" layer="-1.00" shape="1388.788194,605.832342 1381.458301,600.063270 1377.811813,596.939087 1381.058315,592.405206 1380.713656,592.168013 1381.945360,590.460538 1411.770990,611.556136 1410.278934,613.770094 1406.742724,618.710948 1389.286299,606.255314 1388.788194,605.832342"/>