<?xml version="1.0" encoding="UTF-8"?>
<!-- generated on 2018-12-23 18:52:29.729029 by $Id: randomTrips.py 23999 2017-04-21 09:04:47Z behrisch $
  options: -n ../maps/Padova/Padova.net.xml -d 250 -o ../maps/Padova/Padova-250.trips.xml
-->
<routes xmlns:xsi="http://www.w3.org/2001/XMLSchema-instance" xsi:noNamespaceSchemaLocation="http://sumo.dlr.de/xsd/routes_file.xsd">
	<vType id="car" accel="0.8" decel="4.5" sigma="0.5" length="4" maxSpeed="50"/>

	<trip id="0" depart="0.00" departPos="20" from="29985102" to="29985102" type="car"/>
	<trip id="1" depart="0.00" departPos="10" from="157386837#1" to="157386837#1" type="car"/>
	<trip id="2" depart="0.00" departPos="50" from="-257135384#1" to="-257135384#1" type="car"/>
	<trip id="3" depart="0.00" departPos="96" from="48064726#0" to="48064726#0" type="car"/>
	<trip id="4" depart="0.00" departPos="60" from="-172400661#3" to="-172400661#3" type="car"/>
	<trip id="5" depart="0.00" departPos="31" from="30017211" to="30017211" type="car"/>
	<trip id="6" depart="0.00" departPos="29" from="108140486#1" to="108140486#1" type="car"/>
	<trip id="7" depart="0.00" departPos="9" from="-30019598" to="-30019598" type="car"/>
	<trip id="8" depart="0.00" departPos="88" from="-29983394" to="-29983394" type="car"/>
	<trip id="9" depart="0.00" departPos="162" from="-172400661#0" to="-172400661#0" type="car"/>
	<trip id="10" depart="0.00" departPos="14" from="27198540#0" to="27198540#0" type="car"/>
	<trip id="11" depart="0.00" departPos="51" from="132327554#1" to="132327554#1" type="car"/>
	<trip id="12" depart="0.00" departPos="37" from="30017149#2" to="30017149#2" type="car"/>
	<trip id="13" depart="0.00" departPos="47" from="27198540#3" to="27198540#3" type="car"/>
	<trip id="14" depart="0.00" departPos="26" from="27198540#5" to="27198540#5" type="car"/>
	<trip id="15" depart="0.00" departPos="44" from="30016949" to="30016949" type="car"/>
	<trip id="16" depart="0.00" departPos="26" from="30016950#0" to="30016950#0" type="car"/>
	<trip id="17" depart="0.00" departPos="22" from="30016950#1" to="30016950#1" type="car"/>
	<trip id="18" depart="0.00" departPos="37" from="30016979#2" to="30016979#2" type="car"/>
	<trip id="19" depart="0.00" departPos="4" from="30017104#3" to="30017104#3" type="car"/>
	<trip id="20" depart="0.00" departPos="19" from="30130222#1" to="30130222#1" type="car"/>
	<trip id="21" depart="0.00" departPos="38" from="50076179#0" to="50076179#0" type="car"/>
	<trip id="22" depart="0.00" departPos="27" from="29994223#0" to="29994223#0" type="car"/>
	<trip id="23" depart="0.00" departPos="16" from="29994223#2" to="29994223#2" type="car"/>
	<trip id="24" depart="0.00" departPos="9" from="23543987#0" to="23543987#0" type="car"/>
	<trip id="25" depart="0.00" departPos="47" from="29994223#8" to="29994223#8" type="car"/>
	<trip id="26" depart="0.00" departPos="33" from="22885812#1" to="22885812#1" type="car"/>
	<trip id="27" depart="0.00" departPos="3" from="30016421#2" to="30016421#2" type="car"/>
	<trip id="28" depart="0.00" departPos="2" from="-29994223#6" to="-29994223#6" type="car"/>
	<trip id="29" depart="0.00" departPos="7" from="30130240" to="30130240" type="car"/>
	<trip id="30" depart="0.00" departPos="3" from="18821048#0" to="18821048#0" type="car"/>
	<trip id="31" depart="0.00" departPos="18" from="23555681#1" to="23555681#1" type="car"/>
	<trip id="32" depart="0.00" departPos="65" from="30016326" to="30016326" type="car"/>
	<trip id="33" depart="0.00" departPos="24" from="138749229" to="138749229" type="car"/>
	<trip id="34" depart="0.00" departPos="39" from="23543753" to="23543753" type="car"/>
	<trip id="35" depart="0.00" departPos="18" from="148332964" to="148332964" type="car"/>
	<trip id="36" depart="0.00" departPos="38" from="47638902#1" to="47638902#1" type="car"/>
	<trip id="37" depart="0.00" departPos="42" from="141046371#0" to="141046371#0" type="car"/>
	<trip id="38" depart="0.00" departPos="47" from="141046371#2" to="141046371#2" type="car"/>
	<trip id="39" depart="0.00" departPos="38" from="225545134#1" to="225545134#1" type="car"/>
	<trip id="40" depart="0.00" departPos="8" from="23543761" to="23543761" type="car"/>
	<trip id="41" depart="0.00" departPos="94" from="41865752#1" to="41865752#1" type="car"/>
	<trip id="42" depart="0.00" departPos="52" from="18821051#1" to="18821051#1" type="car"/>
	<trip id="43" depart="0.00" departPos="23" from="50076178#1" to="50076178#1" type="car"/>
	<trip id="44" depart="0.00" departPos="139" from="27380643#0" to="27380643#0" type="car"/>
	<trip id="45" depart="0.00" departPos="145" from="27380643#1" to="27380643#1" type="car"/>
	<trip id="46" depart="0.00" departPos="16" from="42420009" to="42420009" type="car"/>
	<trip id="47" depart="0.00" departPos="24" from="80238865" to="80238865" type="car"/>
	<trip id="48" depart="0.00" departPos="18" from="30019294#1" to="30019294#1" type="car"/>
	<trip id="49" depart="0.00" departPos="9" from="-27198548" to="-27198548" type="car"/>
	<trip id="50" depart="0.00" departPos="57" from="29983354#1" to="29983354#1" type="car"/>
	<trip id="51" depart="0.00" departPos="72" from="30019827" to="30019827" type="car"/>
	<trip id="52" depart="0.00" departPos="3" from="27379761#2" to="27379761#2" type="car"/>
	<trip id="53" depart="0.00" departPos="31" from="-27379781#1" to="-27379781#1" type="car"/>
	<trip id="54" depart="0.00" departPos="16" from="27379759#1" to="27379759#1" type="car"/>
	<trip id="55" depart="0.00" departPos="27" from="27379761#0" to="27379761#0" type="car"/>
	<trip id="56" depart="0.00" departPos="25" from="27379760#0" to="27379760#0" type="car"/>
	<trip id="57" depart="0.00" departPos="35" from="30019290" to="30019290" type="car"/>
	<trip id="58" depart="0.00" departPos="52" from="-30019623#1" to="-30019623#1" type="car"/>
	<trip id="59" depart="0.00" departPos="28" from="-30603377#0" to="-30603377#0" type="car"/>
	<trip id="60" depart="0.00" departPos="60" from="30019486" to="30019486" type="car"/>
	<trip id="61" depart="0.00" departPos="67" from="30019531" to="30019531" type="car"/>
	<trip id="62" depart="0.00" departPos="17" from="30019570" to="30019570" type="car"/>
	<trip id="63" depart="0.00" departPos="90" from="27380646#2" to="27380646#2" type="car"/>
	<trip id="64" depart="0.00" departPos="26" from="96107123#1" to="96107123#1" type="car"/>
	<trip id="65" depart="0.00" departPos="94" from="30130260#0" to="30130260#0" type="car"/>
	<trip id="66" depart="0.00" departPos="15" from="64115340" to="64115340" type="car"/>
	<trip id="67" depart="0.00" departPos="113" from="18821052#1" to="18821052#1" type="car"/>
	<trip id="68" depart="0.00" departPos="80" from="29994300#1" to="29994300#1" type="car"/>
	<trip id="69" depart="0.00" departPos="6" from="29994300#2" to="29994300#2" type="car"/>
	<trip id="70" depart="0.00" departPos="24" from="29994300#5" to="29994300#5" type="car"/>
	<trip id="71" depart="0.00" departPos="47" from="30016985#3" to="30016985#3" type="car"/>
	<trip id="72" depart="0.00" departPos="8" from="30137739" to="30137739" type="car"/>
	<trip id="73" depart="0.00" departPos="29" from="30137726#1" to="30137726#1" type="car"/>
	<trip id="74" depart="0.00" departPos="11" from="30016127#0" to="30016127#0" type="car"/>
	<trip id="75" depart="0.00" departPos="21" from="30134251" to="30134251" type="car"/>
	<trip id="76" depart="0.00" departPos="182" from="30134215" to="30134215" type="car"/>
	<trip id="77" depart="0.00" departPos="30" from="30016810#4" to="30016810#4" type="car"/>
	<trip id="78" depart="0.00" departPos="4" from="30016485" to="30016485" type="car"/>
	<trip id="79" depart="0.00" departPos="23" from="30267544" to="30267544" type="car"/>
	<trip id="80" depart="0.00" departPos="23" from="30134200#3" to="30134200#3" type="car"/>
	<trip id="81" depart="0.00" departPos="17" from="30134200#0" to="30134200#0" type="car"/>
	<trip id="82" depart="0.00" departPos="6" from="30016520" to="30016520" type="car"/>
	<trip id="83" depart="0.00" departPos="20" from="30601439" to="30601439" type="car"/>
	<trip id="84" depart="0.00" departPos="24" from="30016421#1" to="30016421#1" type="car"/>
	<trip id="85" depart="0.00" departPos="38" from="30267447" to="30267447" type="car"/>
	<trip id="86" depart="0.00" departPos="31" from="22635975#0" to="22635975#0" type="car"/>
	<trip id="87" depart="0.00" departPos="46" from="30130361#1" to="30130361#1" type="car"/>
	<trip id="88" depart="0.00" departPos="3" from="27196216" to="27196216" type="car"/>
	<trip id="89" depart="0.00" departPos="3" from="27198515" to="27198515" type="car"/>
	<trip id="90" depart="0.00" departPos="56" from="30130361#5" to="30130361#5" type="car"/>
	<trip id="91" depart="0.00" departPos="52" from="55378013#0" to="55378013#0" type="car"/>
	<trip id="92" depart="0.00" departPos="108" from="22635979#2" to="22635979#2" type="car"/>
	<trip id="93" depart="0.00" departPos="73" from="22635979#3" to="22635979#3" type="car"/>
	<trip id="94" depart="0.00" departPos="63" from="27196220" to="27196220" type="car"/>
	<trip id="95" depart="0.00" departPos="29" from="187039145#1" to="187039145#1" type="car"/>
	<trip id="96" depart="0.00" departPos="29" from="-187039145#0" to="-187039145#0" type="car"/>
	<trip id="97" depart="0.00" departPos="34" from="27198631" to="27198631" type="car"/>
	<trip id="98" depart="0.00" departPos="3" from="-27660450#6" to="-27660450#6" type="car"/>
	<trip id="99" depart="0.00" departPos="3" from="17548899#6" to="17548899#6" type="car"/>
	<trip id="100" depart="0.00" departPos="2" from="360157483" to="360157483" type="car"/>
	<trip id="101" depart="0.00" departPos="32" from="-27660450#5" to="-27660450#5" type="car"/>
	<trip id="102" depart="0.00" departPos="45" from="-27660450#1" to="-27660450#1" type="car"/>
	<trip id="103" depart="0.00" departPos="5" from="27660450#2" to="27660450#2" type="car"/>
	<trip id="104" depart="0.00" departPos="7" from="360157482" to="360157482" type="car"/>
	<trip id="105" depart="0.00" departPos="97" from="-238475476#0" to="-238475476#0" type="car"/>
	<trip id="106" depart="0.00" departPos="16" from="-18521684#2" to="-18521684#2" type="car"/>
	<trip id="107" depart="0.00" departPos="2" from="27660453#0" to="27660453#0" type="car"/>
	<trip id="108" depart="0.00" departPos="4" from="27660453#1" to="27660453#1" type="car"/>
	<trip id="109" depart="0.00" departPos="33" from="27660451#1" to="27660451#1" type="car"/>
	<trip id="110" depart="0.00" departPos="4" from="360157481" to="360157481" type="car"/>
	<trip id="111" depart="0.00" departPos="8" from="27660452#2" to="27660452#2" type="car"/>
	<trip id="112" depart="0.00" departPos="24" from="27660452#3" to="27660452#3" type="car"/>
	<trip id="113" depart="0.00" departPos="5" from="-27660452#1" to="-27660452#1" type="car"/>
	<trip id="114" depart="0.00" departPos="46" from="30188262#0" to="30188262#0" type="car"/>
	<trip id="115" depart="0.00" departPos="38" from="30188262#1" to="30188262#1" type="car"/>
	<trip id="116" depart="0.00" departPos="7" from="30187900#3" to="30187900#3" type="car"/>
	<trip id="117" depart="0.00" departPos="28" from="-30188175#1" to="-30188175#1" type="car"/>
	<trip id="118" depart="0.00" departPos="35" from="-30187900#1" to="-30187900#1" type="car"/>
	<trip id="119" depart="0.00" departPos="37" from="30188581#0" to="30188581#0" type="car"/>
	<trip id="120" depart="0.00" departPos="27" from="-27660452#7" to="-27660452#7" type="car"/>
	<trip id="121" depart="0.00" departPos="29" from="17279435#1" to="17279435#1" type="car"/>
	<trip id="122" depart="0.00" departPos="41" from="-30188175#0" to="-30188175#0" type="car"/>
	<trip id="123" depart="0.00" departPos="32" from="-148476828#0" to="-148476828#0" type="car"/>
	<trip id="124" depart="0.00" departPos="3" from="30340697" to="30340697" type="car"/>
	<trip id="125" depart="0.00" departPos="81" from="-35174151#0" to="-35174151#0" type="car"/>
	<trip id="126" depart="0.00" departPos="169" from="-29983860" to="-29983860" type="car"/>
	<trip id="127" depart="0.00" departPos="69" from="-29983805#1" to="-29983805#1" type="car"/>
	<trip id="128" depart="0.00" departPos="4" from="358241420" to="358241420" type="car"/>
	<trip id="129" depart="0.00" departPos="4" from="228417021#1" to="228417021#1" type="car"/>
	<trip id="130" depart="0.00" departPos="7" from="29983951#0" to="29983951#0" type="car"/>
	<trip id="131" depart="0.00" departPos="3" from="82325395#0" to="82325395#0" type="car"/>
	<trip id="132" depart="0.00" departPos="9" from="62111659" to="62111659" type="car"/>
	<trip id="133" depart="0.00" departPos="11" from="48124491" to="48124491" type="car"/>
	<trip id="134" depart="0.00" departPos="22" from="37263130" to="37263130" type="car"/>
	<trip id="135" depart="0.00" departPos="19" from="37263160" to="37263160" type="car"/>
	<trip id="136" depart="0.00" departPos="62" from="48125533#3" to="48125533#3" type="car"/>
	<trip id="137" depart="0.00" departPos="19" from="30001038#1" to="30001038#1" type="car"/>
	<trip id="138" depart="0.00" departPos="32" from="386607922#1" to="386607922#1" type="car"/>
	<trip id="139" depart="0.00" departPos="6" from="48125533#2" to="48125533#2" type="car"/>
	<trip id="140" depart="0.00" departPos="48" from="30000993#1" to="30000993#1" type="car"/>
	<trip id="141" depart="0.00" departPos="87" from="30001003#0" to="30001003#0" type="car"/>
	<trip id="142" depart="0.00" departPos="20" from="30001013#0" to="30001013#0" type="car"/>
	<trip id="143" depart="0.00" departPos="57" from="223604929" to="223604929" type="car"/>
	<trip id="144" depart="0.00" departPos="6" from="-55378029" to="-55378029" type="car"/>
	<trip id="145" depart="0.00" departPos="4" from="149760508" to="149760508" type="car"/>
	<trip id="146" depart="0.00" departPos="80" from="27198524#0" to="27198524#0" type="car"/>
	<trip id="147" depart="0.00" departPos="93" from="27196958" to="27196958" type="car"/>
	<trip id="148" depart="0.00" departPos="24" from="27198526#4" to="27198526#4" type="car"/>
	<trip id="149" depart="0.00" departPos="9" from="27198526#2" to="27198526#2" type="car"/>
	<trip id="150" depart="0.00" departPos="4" from="30001411#0" to="30001411#0" type="car"/>
	<trip id="151" depart="0.00" departPos="38" from="27198526#7" to="27198526#7" type="car"/>
	<trip id="152" depart="0.00" departPos="18" from="30267498#0" to="30267498#0" type="car"/>
	<trip id="153" depart="0.00" departPos="9" from="30267498#1" to="30267498#1" type="car"/>
	<trip id="154" depart="0.00" departPos="15" from="30001430#2" to="30001430#2" type="car"/>
	<trip id="155" depart="0.00" departPos="7" from="29985042#2" to="29985042#2" type="car"/>
	<trip id="156" depart="0.00" departPos="47" from="29984714#0" to="29984714#0" type="car"/>
	<trip id="157" depart="0.00" departPos="16" from="29985358#0" to="29985358#0" type="car"/>
	<trip id="158" depart="0.00" departPos="61" from="29495322#0" to="29495322#0" type="car"/>
	<trip id="159" depart="0.00" departPos="50" from="37719884" to="37719884" type="car"/>
	<trip id="160" depart="0.00" departPos="18" from="29985408" to="29985408" type="car"/>
	<trip id="161" depart="0.00" departPos="99" from="257135369" to="257135369" type="car"/>
	<trip id="162" depart="0.00" departPos="24" from="257135384#0" to="257135384#0" type="car"/>
	<trip id="163" depart="0.00" departPos="48" from="29985570" to="29985570" type="car"/>
	<trip id="164" depart="0.00" departPos="38" from="29985582" to="29985582" type="car"/>
	<trip id="165" depart="0.00" departPos="65" from="27198530" to="27198530" type="car"/>
	<trip id="166" depart="0.00" departPos="77" from="27198527#0" to="27198527#0" type="car"/>
	<trip id="167" depart="0.00" departPos="163" from="27198512" to="27198512" type="car"/>
	<trip id="168" depart="0.00" departPos="7" from="48050544" to="48050544" type="car"/>
	<trip id="169" depart="0.00" departPos="40" from="30187898#0" to="30187898#0" type="car"/>
	<trip id="170" depart="0.00" departPos="29" from="30187898#1" to="30187898#1" type="car"/>
	<trip id="171" depart="0.00" departPos="14" from="17548899#5" to="17548899#5" type="car"/>
	<trip id="172" depart="0.00" departPos="126" from="341028140#0" to="341028140#0" type="car"/>
	<trip id="173" depart="0.00" departPos="75" from="27196930#1" to="27196930#1" type="car"/>
	<trip id="174" depart="0.00" departPos="30" from="69606494" to="69606494" type="car"/>
	<trip id="175" depart="0.00" departPos="55" from="17540838#0" to="17540838#0" type="car"/>
	<trip id="176" depart="0.00" departPos="195" from="17540838#1" to="17540838#1" type="car"/>
	<trip id="177" depart="0.00" departPos="77" from="343436156" to="343436156" type="car"/>
	<trip id="178" depart="0.00" departPos="2" from="154714746" to="154714746" type="car"/>
	<trip id="179" depart="0.00" departPos="10" from="-29999703#2" to="-29999703#2" type="car"/>
	<trip id="180" depart="0.00" departPos="2" from="29999722" to="29999722" type="car"/>
	<trip id="181" depart="0.00" departPos="27" from="29999760#1" to="29999760#1" type="car"/>
	<trip id="182" depart="0.00" departPos="52" from="29999800#0" to="29999800#0" type="car"/>
	<trip id="183" depart="0.00" departPos="20" from="27196934#2" to="27196934#2" type="car"/>
	<trip id="184" depart="0.00" departPos="67" from="-27196934#1" to="-27196934#1" type="car"/>
	<trip id="185" depart="0.00" departPos="3" from="17540863#1" to="17540863#1" type="car"/>
	<trip id="186" depart="0.00" departPos="34" from="343436695#1" to="343436695#1" type="car"/>
	<trip id="187" depart="0.00" departPos="115" from="343436695#4" to="343436695#4" type="car"/>
	<trip id="188" depart="0.00" departPos="0" from="27196933#0" to="27196933#0" type="car"/>
	<trip id="189" depart="0.00" departPos="57" from="30644683" to="30644683" type="car"/>
	<trip id="190" depart="0.00" departPos="163" from="19829952#1" to="19829952#1" type="car"/>
	<trip id="191" depart="0.00" departPos="19" from="30644694#1" to="30644694#1" type="car"/>
	<trip id="192" depart="0.00" departPos="7" from="172667029#3" to="172667029#3" type="car"/>
	<trip id="193" depart="0.00" departPos="51" from="22635982" to="22635982" type="car"/>
	<trip id="194" depart="0.00" departPos="38" from="27196942#0" to="27196942#0" type="car"/>
	<trip id="195" depart="0.00" departPos="23" from="27196929#0" to="27196929#0" type="car"/>
	<trip id="196" depart="0.00" departPos="161" from="172667029#5" to="172667029#5" type="car"/>
	<trip id="197" depart="0.00" departPos="10" from="19059614#1" to="19059614#1" type="car"/>
	<trip id="198" depart="0.00" departPos="13" from="29986241#2" to="29986241#2" type="car"/>
	<trip id="199" depart="0.00" departPos="2" from="30317652#4" to="30317652#4" type="car"/>
	<trip id="200" depart="0.00" departPos="16" from="19995527#3" to="19995527#3" type="car"/>
	<trip id="201" depart="0.00" departPos="90" from="30318632#1" to="30318632#1" type="car"/>
	<trip id="202" depart="0.00" departPos="15" from="-30318632#2" to="-30318632#2" type="car"/>
	<trip id="203" depart="0.00" departPos="20" from="29991877" to="29991877" type="car"/>
	<trip id="204" depart="0.00" departPos="3" from="-204441438#2" to="-204441438#2" type="car"/>
	<trip id="205" depart="0.00" departPos="3" from="433799217#1" to="433799217#1" type="car"/>
	<trip id="206" depart="0.00" departPos="56" from="30318791" to="30318791" type="car"/>
	<trip id="207" depart="0.00" departPos="21" from="-204441445#0" to="-204441445#0" type="car"/>
	<trip id="208" depart="0.00" departPos="45" from="-204441443#0" to="-204441443#0" type="car"/>
	<trip id="209" depart="0.00" departPos="3" from="239196589#1" to="239196589#1" type="car"/>
	<trip id="210" depart="0.00" departPos="36" from="30318634" to="30318634" type="car"/>
	<trip id="211" depart="0.00" departPos="2" from="-30318632#3" to="-30318632#3" type="car"/>
	<trip id="212" depart="0.00" departPos="3" from="85952033#0" to="85952033#0" type="car"/>
	<trip id="213" depart="0.00" departPos="3" from="175846972#1" to="175846972#1" type="car"/>
	<trip id="214" depart="0.00" departPos="24" from="149009747" to="149009747" type="car"/>
	<trip id="215" depart="0.00" departPos="10" from="175846971#0" to="175846971#0" type="car"/>
	<trip id="216" depart="0.00" departPos="3" from="30317973#2" to="30317973#2" type="car"/>
	<trip id="217" depart="0.00" departPos="18" from="37264185#3" to="37264185#3" type="car"/>
	<trip id="218" depart="0.00" departPos="3" from="-30318251" to="-30318251" type="car"/>
	<trip id="219" depart="0.00" departPos="3" from="175846972#3" to="175846972#3" type="car"/>
	<trip id="220" depart="0.00" departPos="11" from="75653883#0" to="75653883#0" type="car"/>
	<trip id="221" depart="0.00" departPos="23" from="172667031#7" to="172667031#7" type="car"/>
	<trip id="222" depart="0.00" departPos="16" from="-172667031#10" to="-172667031#10" type="car"/>
	<trip id="223" depart="0.00" departPos="14" from="22870867#0" to="22870867#0" type="car"/>
	<trip id="224" depart="0.00" departPos="25" from="69606491" to="69606491" type="car"/>
	<trip id="225" depart="0.00" departPos="2" from="-176214754#1" to="-176214754#1" type="car"/>
	<trip id="226" depart="0.00" departPos="10" from="30315146" to="30315146" type="car"/>
	<trip id="227" depart="0.00" departPos="12" from="30315165" to="30315165" type="car"/>
	<trip id="228" depart="0.00" departPos="6" from="360768108#1" to="360768108#1" type="car"/>
	<trip id="229" depart="0.00" departPos="3" from="42423139" to="42423139" type="car"/>
	<trip id="230" depart="0.00" departPos="45" from="22735142#1" to="22735142#1" type="car"/>
	<trip id="231" depart="0.00" departPos="6" from="22735142#3" to="22735142#3" type="car"/>
	<trip id="232" depart="0.00" departPos="35" from="363479333#3" to="363479333#3" type="car"/>
	<trip id="233" depart="0.00" departPos="63" from="30622529#2" to="30622529#2" type="car"/>
	<trip id="234" depart="0.00" departPos="22" from="30622529#6" to="30622529#6" type="car"/>
	<trip id="235" depart="0.00" departPos="35" from="30622529#0" to="30622529#0" type="car"/>
	<trip id="236" depart="0.00" departPos="32" from="48080760#0" to="48080760#0" type="car"/>
	<trip id="237" depart="0.00" departPos="40" from="48080760#2" to="48080760#2" type="car"/>
	<trip id="238" depart="0.00" departPos="22" from="209044018#1" to="209044018#1" type="car"/>
	<trip id="239" depart="0.00" departPos="19" from="209044018#4" to="209044018#4" type="car"/>
	<trip id="240" depart="0.00" departPos="5" from="504708092#0" to="504708092#0" type="car"/>
	<trip id="241" depart="0.00" departPos="7" from="504708092#2" to="504708092#2" type="car"/>
	<trip id="242" depart="0.00" departPos="7" from="504708092#4" to="504708092#4" type="car"/>
	<trip id="243" depart="0.00" departPos="21" from="-42046685#0" to="-42046685#0" type="car"/>
	<trip id="244" depart="0.00" departPos="36" from="172020585#0" to="172020585#0" type="car"/>
	<trip id="245" depart="0.00" departPos="31" from="172020585#5" to="172020585#5" type="car"/>
	<trip id="246" depart="0.00" departPos="33" from="48134916#1" to="48134916#1" type="car"/>
	<trip id="247" depart="0.00" departPos="11" from="27196198#0" to="27196198#0" type="car"/>
	<trip id="248" depart="0.00" departPos="45" from="48134916#5" to="48134916#5" type="car"/>
	<trip id="249" depart="0.00" departPos="3" from="172667031#4" to="172667031#4" type="car"/>
	<trip id="250" depart="0.00" departPos="28" from="30317158#0" to="30317158#0" type="car"/>
	<trip id="251" depart="0.00" departPos="60" from="302630121#0" to="302630121#0" type="car"/>
	<trip id="252" depart="0.00" departPos="27" from="23555665#1" to="23555665#1" type="car"/>
	<trip id="253" depart="0.00" departPos="95" from="363479341#0" to="363479341#0" type="car"/>
	<trip id="254" depart="0.00" departPos="23" from="48124503#1" to="48124503#1" type="car"/>
	<trip id="255" depart="0.00" departPos="3" from="37720100#0" to="37720100#0" type="car"/>
	<trip id="256" depart="0.00" departPos="5" from="48741593" to="48741593" type="car"/>
	<trip id="257" depart="0.00" departPos="14" from="48124499#1" to="48124499#1" type="car"/>
	<trip id="258" depart="0.00" departPos="10" from="29994702#2" to="29994702#2" type="car"/>
	<trip id="259" depart="0.00" departPos="53" from="132652454#1" to="132652454#1" type="car"/>
	<trip id="260" depart="0.00" departPos="32" from="22994936#5" to="22994936#5" type="car"/>
	<trip id="261" depart="0.00" departPos="9" from="29982579#1" to="29982579#1" type="car"/>
	<trip id="262" depart="0.00" departPos="31" from="23637878" to="23637878" type="car"/>
	<trip id="263" depart="0.00" departPos="22" from="23637879#1" to="23637879#1" type="car"/>
	<trip id="264" depart="0.00" departPos="9" from="29489370" to="29489370" type="car"/>
	<trip id="265" depart="0.00" departPos="6" from="22885811#1" to="22885811#1" type="car"/>
	<trip id="266" depart="0.00" departPos="61" from="255422871#1" to="255422871#1" type="car"/>
	<trip id="267" depart="0.00" departPos="64" from="30130347#0" to="30130347#0" type="car"/>
	<trip id="268" depart="0.00" departPos="2" from="30130339#1" to="30130339#1" type="car"/>
	<trip id="269" depart="0.00" departPos="6" from="22885811#0" to="22885811#0" type="car"/>
	<trip id="270" depart="0.00" departPos="26" from="29494031" to="29494031" type="car"/>
	<trip id="271" depart="0.00" departPos="7" from="30016381#1" to="30016381#1" type="car"/>
	<trip id="272" depart="0.00" departPos="22" from="335351861" to="335351861" type="car"/>
	<trip id="273" depart="0.00" departPos="15" from="30016382#1" to="30016382#1" type="car"/>
	<trip id="274" depart="0.00" departPos="32" from="30602359#1" to="30602359#1" type="car"/>
	<trip id="275" depart="0.00" departPos="27" from="27212508#3" to="27212508#3" type="car"/>
	<trip id="276" depart="0.00" departPos="23" from="27212508#8" to="27212508#8" type="car"/>
	<trip id="277" depart="0.00" departPos="9" from="-22885812#2" to="-22885812#2" type="car"/>
	<trip id="278" depart="0.00" departPos="27" from="29994546#1" to="29994546#1" type="car"/>
	<trip id="279" depart="0.00" departPos="23" from="22994936#1" to="22994936#1" type="car"/>
	<trip id="280" depart="0.00" departPos="12" from="132652453#1" to="132652453#1" type="car"/>
	<trip id="281" depart="0.00" departPos="10" from="22994936#3" to="22994936#3" type="car"/>
	<trip id="282" depart="0.00" departPos="27" from="29994874#1" to="29994874#1" type="car"/>
	<trip id="283" depart="0.00" departPos="14" from="61982939" to="61982939" type="car"/>
	<trip id="284" depart="0.00" departPos="15" from="48741592" to="48741592" type="car"/>
	<trip id="285" depart="0.00" departPos="9" from="138753379" to="138753379" type="car"/>
	<trip id="286" depart="0.00" departPos="17" from="29986474#2" to="29986474#2" type="car"/>
	<trip id="287" depart="0.00" departPos="28" from="29986474#1" to="29986474#1" type="car"/>
	<trip id="288" depart="0.00" departPos="2" from="505221863" to="505221863" type="car"/>
	<trip id="289" depart="0.00" departPos="34" from="505221864" to="505221864" type="car"/>
	<trip id="290" depart="0.00" departPos="33" from="505221865" to="505221865" type="car"/>
	<trip id="291" depart="0.00" departPos="10" from="23543727#0" to="23543727#0" type="car"/>
	<trip id="292" depart="0.00" departPos="102" from="23543728#1" to="23543728#1" type="car"/>
	<trip id="293" depart="0.00" departPos="10" from="199277172" to="199277172" type="car"/>
	<trip id="294" depart="0.00" departPos="8" from="172020586#0" to="172020586#0" type="car"/>
	<trip id="295" depart="0.00" departPos="3" from="382402840" to="382402840" type="car"/>
	<trip id="296" depart="0.00" departPos="18" from="-29995082" to="-29995082" type="car"/>
	<trip id="297" depart="0.00" departPos="48" from="30600922" to="30600922" type="car"/>
	<trip id="298" depart="0.00" departPos="19" from="-23543742#1" to="-23543742#1" type="car"/>
	<trip id="299" depart="0.00" departPos="137" from="-19967665" to="-19967665" type="car"/>
	<trip id="300" depart="0.00" departPos="117" from="29995095#0" to="29995095#0" type="car"/>
	<trip id="301" depart="0.00" departPos="132" from="29995095#1" to="29995095#1" type="car"/>
	<trip id="302" depart="0.00" departPos="50" from="23543744#0" to="23543744#0" type="car"/>
	<trip id="303" depart="0.00" departPos="22" from="23543744#1" to="23543744#1" type="car"/>
	<trip id="304" depart="0.00" departPos="52" from="23543749#0" to="23543749#0" type="car"/>
	<trip id="305" depart="0.00" departPos="57" from="23543749#1" to="23543749#1" type="car"/>
	<trip id="306" depart="0.00" departPos="65" from="29995114#1" to="29995114#1" type="car"/>
	<trip id="307" depart="0.00" departPos="40" from="22702072#3" to="22702072#3" type="car"/>
	<trip id="308" depart="0.00" departPos="127" from="23543748" to="23543748" type="car"/>
	<trip id="309" depart="0.00" departPos="124" from="-23543747" to="-23543747" type="car"/>
	<trip id="310" depart="0.00" departPos="26" from="23543746#2" to="23543746#2" type="car"/>
	<trip id="311" depart="0.00" departPos="47" from="22702072#5" to="22702072#5" type="car"/>
	<trip id="312" depart="0.00" departPos="40" from="23543751" to="23543751" type="car"/>
	<trip id="313" depart="0.00" departPos="6" from="22702072#1" to="22702072#1" type="car"/>
	<trip id="314" depart="0.00" departPos="68" from="29986379#3" to="29986379#3" type="car"/>
	<trip id="315" depart="0.00" departPos="57" from="29986379#1" to="29986379#1" type="car"/>
	<trip id="316" depart="0.00" departPos="193" from="23543755" to="23543755" type="car"/>
	<trip id="317" depart="0.00" departPos="11" from="23543740#1" to="23543740#1" type="car"/>
	<trip id="318" depart="0.00" departPos="14" from="505221862" to="505221862" type="car"/>
	<trip id="319" depart="0.00" departPos="31" from="534138684#1" to="534138684#1" type="car"/>
	<trip id="320" depart="0.00" departPos="7" from="24045466#1" to="24045466#1" type="car"/>
	<trip id="321" depart="0.00" departPos="12" from="-178632015#0" to="-178632015#0" type="car"/>
	<trip id="322" depart="0.00" departPos="17" from="-178631483" to="-178631483" type="car"/>
	<trip id="323" depart="0.00" departPos="19" from="22870864#3" to="22870864#3" type="car"/>