<?xml version="1.0" encoding="UTF-8"?>
<!-- generated on 2019-01-11 13:26:36.986082 by $Id: randomTrips.py 23999 2017-04-21 09:04:47Z behrisch $
  options: -n ../maps/Padova/Padova.net.xml -d 25 -o ../maps/Padova/Padova-25.trips.xml
-->
<routes xmlns:xsi="http://www.w3.org/2001/XMLSchema-instance" xsi:noNamespaceSchemaLocation="http://sumo.dlr.de/xsd/routes_file.xsd">
	<vType id="car" accel="0.8" decel="4.5" sigma="0.5" length="4" maxSpeed="50"/>

	<trip id="0" depart="0.00" departPos="20" from="29985102" to="29985102" type="car"/>
	<trip id="1" depart="0.00" departPos="10" from="157386837#1" to="157386837#1" type="car"/>
	<trip id="2" depart="0.00" departPos="50" from="-257135384#1" to="-257135384#1" type="car"/>
	<trip id="3" depart="0.00" departPos="75" from="-257135384#1" to="-257135384#1" type="car"/>
	<trip id="4" depart="0.00" departPos="96" from="48064726#0" to="48064726#0" type="car"/>
	<trip id="5" depart="0.00" departPos="121" from="48064726#0" to="48064726#0" type="car"/>
	<trip id="6" depart="0.00" departPos="146" from="48064726#0" to="48064726#0" type="car"/>
	<trip id="7" depart="0.00" departPos="171" from="48064726#0" to="48064726#0" type="car"/>
	<trip id="8" depart="0.00" departPos="4" from="48064726#1" to="48064726#1" type="car"/>
	<trip id="9" depart="0.00" departPos="60" from="-172400661#3" to="-172400661#3" type="car"/>
	<trip id="10" depart="0.00" departPos="85" from="-172400661#3" to="-172400661#3" type="car"/>
	<trip id="11" depart="0.00" departPos="110" from="-172400661#3" to="-172400661#3" type="car"/>
	<trip id="12" depart="0.00" departPos="4" from="-172400661#1" to="-172400661#1" type="car"/>
	<trip id="13" depart="0.00" departPos="29" from="-172400661#1" to="-172400661#1" type="car"/>
	<trip id="14" depart="0.00" departPos="54" from="-172400661#1" to="-172400661#1" type="car"/>
	<trip id="15" depart="0.00" departPos="31" from="30017211" to="30017211" type="car"/>
	<trip id="16" depart="0.00" departPos="56" from="30017211" to="30017211" type="car"/>
	<trip id="17" depart="0.00" departPos="19" from="243227477" to="243227477" type="car"/>
	<trip id="18" depart="0.00" departPos="44" from="243227477" to="243227477" type="car"/>
	<trip id="19" depart="0.00" departPos="69" from="243227477" to="243227477" type="car"/>
	<trip id="20" depart="0.00" departPos="94" from="243227477" to="243227477" type="car"/>
	<trip id="21" depart="0.00" departPos="119" from="243227477" to="243227477" type="car"/>
	<trip id="22" depart="0.00" departPos="17" from="-108140486#0" to="-108140486#0" type="car"/>
	<trip id="23" depart="0.00" departPos="29" from="108140486#1" to="108140486#1" type="car"/>
	<trip id="24" depart="0.00" departPos="54" from="108140486#1" to="108140486#1" type="car"/>
	<trip id="25" depart="0.00" departPos="21" from="-30019764" to="-30019764" type="car"/>
	<trip id="26" depart="0.00" departPos="18" from="30019623#0" to="30019623#0" type="car"/>
	<trip id="27" depart="0.00" departPos="43" from="30019623#0" to="30019623#0" type="car"/>
	<trip id="28" depart="0.00" departPos="68" from="30019623#0" to="30019623#0" type="car"/>
	<trip id="29" depart="0.00" departPos="93" from="30019623#0" to="30019623#0" type="car"/>
	<trip id="30" depart="0.00" departPos="9" from="-30019598" to="-30019598" type="car"/>
	<trip id="31" depart="0.00" departPos="88" from="-29983394" to="-29983394" type="car"/>
	<trip id="32" depart="0.00" departPos="113" from="-29983394" to="-29983394" type="car"/>
	<trip id="33" depart="0.00" departPos="138" from="-29983394" to="-29983394" type="car"/>
	<trip id="34" depart="0.00" departPos="163" from="-29983394" to="-29983394" type="car"/>
	<trip id="35" depart="0.00" departPos="12" from="-172400661#0" to="-172400661#0" type="car"/>
	<trip id="36" depart="0.00" departPos="37" from="-172400661#0" to="-172400661#0" type="car"/>
	<trip id="37" depart="0.00" departPos="62" from="-172400661#0" to="-172400661#0" type="car"/>
	<trip id="38" depart="0.00" departPos="87" from="-172400661#0" to="-172400661#0" type="car"/>
	<trip id="39" depart="0.00" departPos="112" from="-172400661#0" to="-172400661#0" type="car"/>
	<trip id="40" depart="0.00" departPos="137" from="-172400661#0" to="-172400661#0" type="car"/>
	<trip id="41" depart="0.00" departPos="162" from="-172400661#0" to="-172400661#0" type="car"/>
	<trip id="42" depart="0.00" departPos="187" from="-172400661#0" to="-172400661#0" type="car"/>
	<trip id="43" depart="0.00" departPos="6" from="27379783#0" to="27379783#0" type="car"/>
	<trip id="44" depart="0.00" departPos="31" from="27379783#0" to="27379783#0" type="car"/>
	<trip id="45" depart="0.00" departPos="56" from="27379783#0" to="27379783#0" type="car"/>
	<trip id="46" depart="0.00" departPos="14" from="27198540#0" to="27198540#0" type="car"/>
	<trip id="47" depart="0.00" departPos="11" from="30017149#0" to="30017149#0" type="car"/>
	<trip id="48" depart="0.00" departPos="36" from="30017149#0" to="30017149#0" type="car"/>
	<trip id="49" depart="0.00" departPos="61" from="30017149#0" to="30017149#0" type="car"/>
	<trip id="50" depart="0.00" departPos="86" from="30017149#0" to="30017149#0" type="car"/>
	<trip id="51" depart="0.00" departPos="111" from="30017149#0" to="30017149#0" type="car"/>
	<trip id="52" depart="0.00" departPos="18" from="30017149#1" to="30017149#1" type="car"/>
	<trip id="53" depart="0.00" departPos="43" from="30017149#1" to="30017149#1" type="car"/>
	<trip id="54" depart="0.00" departPos="68" from="30017149#1" to="30017149#1" type="car"/>
	<trip id="55" depart="0.00" departPos="12" from="132327554#0" to="132327554#0" type="car"/>
	<trip id="56" depart="0.00" departPos="51" from="132327554#1" to="132327554#1" type="car"/>
	<trip id="57" depart="0.00" departPos="76" from="132327554#1" to="132327554#1" type="car"/>
	<trip id="58" depart="0.00" departPos="101" from="132327554#1" to="132327554#1" type="car"/>
	<trip id="59" depart="0.00" departPos="12" from="30017149#2" to="30017149#2" type="car"/>
	<trip id="60" depart="0.00" departPos="37" from="30017149#2" to="30017149#2" type="car"/>
	<trip id="61" depart="0.00" departPos="5" from="27198540#2" to="27198540#2" type="car"/>
	<trip id="62" depart="0.00" departPos="47" from="27198540#3" to="27198540#3" type="car"/>
	<trip id="63" depart="0.00" departPos="72" from="27198540#3" to="27198540#3" type="car"/>
	<trip id="64" depart="0.00" departPos="26" from="27198540#5" to="27198540#5" type="car"/>
	<trip id="65" depart="0.00" departPos="51" from="27198540#5" to="27198540#5" type="car"/>
	<trip id="66" depart="0.00" departPos="13" from="475079859" to="475079859" type="car"/>
	<trip id="67" depart="0.00" departPos="44" from="30016949" to="30016949" type="car"/>
	<trip id="68" depart="0.00" departPos="69" from="30016949" to="30016949" type="car"/>
	<trip id="69" depart="0.00" departPos="26" from="30016950#0" to="30016950#0" type="car"/>
	<trip id="70" depart="0.00" departPos="51" from="30016950#0" to="30016950#0" type="car"/>
	<trip id="71" depart="0.00" departPos="22" from="30016950#1" to="30016950#1" type="car"/>
	<trip id="72" depart="0.00" departPos="3" from="30016933#0" to="30016933#0" type="car"/>
	<trip id="73" depart="0.00" departPos="28" from="30016933#0" to="30016933#0" type="car"/>
	<trip id="74" depart="0.00" departPos="53" from="30016933#0" to="30016933#0" type="car"/>
	<trip id="75" depart="0.00" departPos="19" from="30016979#0" to="30016979#0" type="car"/>
	<trip id="76" depart="0.00" departPos="44" from="30016979#0" to="30016979#0" type="car"/>
	<trip id="77" depart="0.00" departPos="69" from="30016979#0" to="30016979#0" type="car"/>
	<trip id="78" depart="0.00" departPos="14" from="30016979#1" to="30016979#1" type="car"/>
	<trip id="79" depart="0.00" departPos="39" from="30016979#1" to="30016979#1" type="car"/>
	<trip id="80" depart="0.00" departPos="12" from="30016979#2" to="30016979#2" type="car"/>
	<trip id="81" depart="0.00" departPos="37" from="30016979#2" to="30016979#2" type="car"/>
	<trip id="82" depart="0.00" departPos="62" from="30016979#2" to="30016979#2" type="car"/>
	<trip id="83" depart="0.00" departPos="87" from="30016979#2" to="30016979#2" type="car"/>
	<trip id="84" depart="0.00" departPos="20" from="30016995" to="30016995" type="car"/>
	<trip id="85" depart="0.00" departPos="45" from="30016995" to="30016995" type="car"/>
	<trip id="86" depart="0.00" departPos="70" from="30016995" to="30016995" type="car"/>
	<trip id="87" depart="0.00" departPos="95" from="30016995" to="30016995" type="car"/>
	<trip id="88" depart="0.00" departPos="120" from="30016995" to="30016995" type="car"/>
	<trip id="89" depart="0.00" departPos="4" from="30017104#3" to="30017104#3" type="car"/>
	<trip id="90" depart="0.00" departPos="19" from="30130222#1" to="30130222#1" type="car"/>
	<trip id="91" depart="0.00" departPos="5" from="94962819" to="94962819" type="car"/>
	<trip id="92" depart="0.00" departPos="30" from="94962819" to="94962819" type="car"/>
	<trip id="93" depart="0.00" departPos="38" from="50076179#0" to="50076179#0" type="car"/>
	<trip id="94" depart="0.00" departPos="63" from="50076179#0" to="50076179#0" type="car"/>
	<trip id="95" depart="0.00" departPos="11" from="50076179#1" to="50076179#1" type="car"/>
	<trip id="96" depart="0.00" departPos="36" from="50076179#1" to="50076179#1" type="car"/>
	<trip id="97" depart="0.00" departPos="61" from="50076179#1" to="50076179#1" type="car"/>
	<trip id="98" depart="0.00" departPos="86" from="50076179#1" to="50076179#1" type="car"/>
	<trip id="99" depart="0.00" departPos="111" from="50076179#1" to="50076179#1" type="car"/>
	<trip id="100" depart="0.00" departPos="136" from="50076179#1" to="50076179#1" type="car"/>
	<trip id="101" depart="0.00" departPos="161" from="50076179#1" to="50076179#1" type="car"/>
	<trip id="102" depart="0.00" departPos="186" from="50076179#1" to="50076179#1" type="car"/>
	<trip id="103" depart="0.00" departPos="27" from="29994223#0" to="29994223#0" type="car"/>
	<trip id="104" depart="0.00" departPos="52" from="29994223#0" to="29994223#0" type="car"/>
	<trip id="105" depart="0.00" departPos="16" from="29994223#2" to="29994223#2" type="car"/>
	<trip id="106" depart="0.00" departPos="9" from="23543987#0" to="23543987#0" type="car"/>
	<trip id="107" depart="0.00" departPos="15" from="30016347#0" to="30016347#0" type="car"/>
	<trip id="108" depart="0.00" departPos="40" from="30016347#0" to="30016347#0" type="car"/>
	<trip id="109" depart="0.00" departPos="65" from="30016347#0" to="30016347#0" type="car"/>
	<trip id="110" depart="0.00" departPos="22" from="30016347#1" to="30016347#1" type="car"/>
	<trip id="111" depart="0.00" departPos="47" from="30016347#1" to="30016347#1" type="car"/>
	<trip id="112" depart="0.00" departPos="72" from="30016347#1" to="30016347#1" type="car"/>
	<trip id="113" depart="0.00" departPos="97" from="30016347#1" to="30016347#1" type="car"/>
	<trip id="114" depart="0.00" departPos="6" from="30016215#2" to="30016215#2" type="car"/>
	<trip id="115" depart="0.00" departPos="47" from="29994223#8" to="29994223#8" type="car"/>
	<trip id="116" depart="0.00" departPos="72" from="29994223#8" to="29994223#8" type="car"/>
	<trip id="117" depart="0.00" departPos="33" from="22885812#1" to="22885812#1" type="car"/>
	<trip id="118" depart="0.00" departPos="58" from="22885812#1" to="22885812#1" type="car"/>
	<trip id="119" depart="0.00" departPos="3" from="30016421#2" to="30016421#2" type="car"/>
	<trip id="120" depart="0.00" departPos="0" from="30016421#4" to="30016421#4" type="car"/>
	<trip id="121" depart="0.00" departPos="25" from="30016421#4" to="30016421#4" type="car"/>
	<trip id="122" depart="0.00" departPos="2" from="-29994223#6" to="-29994223#6" type="car"/>
	<trip id="123" depart="0.00" departPos="22" from="-29994223#5" to="-29994223#5" type="car"/>
	<trip id="124" depart="0.00" departPos="47" from="-29994223#5" to="-29994223#5" type="car"/>
	<trip id="125" depart="0.00" departPos="7" from="30015935" to="30015935" type="car"/>
	<trip id="126" depart="0.00" departPos="0" from="30130208#0" to="30130208#0" type="car"/>
	<trip id="127" depart="0.00" departPos="25" from="30130208#0" to="30130208#0" type="car"/>
	<trip id="128" depart="0.00" departPos="50" from="30130208#0" to="30130208#0" type="car"/>
	<trip id="129" depart="0.00" departPos="75" from="30130208#0" to="30130208#0" type="car"/>
	<trip id="130" depart="0.00" departPos="100" from="30130208#0" to="30130208#0" type="car"/>
	<trip id="131" depart="0.00" departPos="13" from="30130208#1" to="30130208#1" type="car"/>
	<trip id="132" depart="0.00" departPos="7" from="30130240" to="30130240" type="car"/>
	<trip id="133" depart="0.00" departPos="32" from="30130240" to="30130240" type="car"/>
	<trip id="134" depart="0.00" departPos="7" from="-29994223#4" to="-29994223#4" type="car"/>
	<trip id="135" depart="0.00" departPos="32" from="-29994223#4" to="-29994223#4" type="car"/>
	<trip id="136" depart="0.00" departPos="24" from="-29994223#3" to="-29994223#3" type="car"/>
	<trip id="137" depart="0.00" departPos="1" from="30015999" to="30015999" type="car"/>
	<trip id="138" depart="0.00" departPos="26" from="30015999" to="30015999" type="car"/>
	<trip id="139" depart="0.00" departPos="3" from="18821048#0" to="18821048#0" type="car"/>
	<trip id="140" depart="0.00" departPos="22" from="18821048#1" to="18821048#1" type="car"/>
	<trip id="141" depart="0.00" departPos="11" from="18821048#2" to="18821048#2" type="car"/>
	<trip id="142" depart="0.00" departPos="36" from="18821048#2" to="18821048#2" type="car"/>
	<trip id="143" depart="0.00" departPos="15" from="18821048#3" to="18821048#3" type="car"/>
	<trip id="144" depart="0.00" departPos="40" from="18821048#3" to="18821048#3" type="car"/>
	<trip id="145" depart="0.00" departPos="65" from="18821048#3" to="18821048#3" type="car"/>
	<trip id="146" depart="0.00" departPos="90" from="18821048#3" to="18821048#3" type="car"/>
	<trip id="147" depart="0.00" departPos="14" from="23555681#0" to="23555681#0" type="car"/>
	<trip id="148" depart="0.00" departPos="39" from="23555681#0" to="23555681#0" type="car"/>
	<trip id="149" depart="0.00" departPos="18" from="23555681#1" to="23555681#1" type="car"/>
	<trip id="150" depart="0.00" departPos="43" from="23555681#1" to="23555681#1" type="car"/>
	<trip id="151" depart="0.00" departPos="68" from="23555681#1" to="23555681#1" type="car"/>
	<trip id="152" depart="0.00" departPos="11" from="30016215#0" to="30016215#0" type="car"/>
	<trip id="153" depart="0.00" departPos="36" from="30016215#0" to="30016215#0" type="car"/>
	<trip id="154" depart="0.00" departPos="61" from="30016215#0" to="30016215#0" type="car"/>
	<trip id="155" depart="0.00" departPos="2" from="30016284#0" to="30016284#0" type="car"/>
	<trip id="156" depart="0.00" departPos="27" from="30016284#0" to="30016284#0" type="car"/>
	<trip id="157" depart="0.00" departPos="15" from="30016284#1" to="30016284#1" type="car"/>
	<trip id="158" depart="0.00" departPos="40" from="30016284#1" to="30016284#1" type="car"/>
	<trip id="159" depart="0.00" departPos="15" from="30016326" to="30016326" type="car"/>
	<trip id="160" depart="0.00" departPos="40" from="30016326" to="30016326" type="car"/>
	<trip id="161" depart="0.00" departPos="65" from="30016326" to="30016326" type="car"/>
	<trip id="162" depart="0.00" departPos="2" from="30016215#1" to="30016215#1" type="car"/>
	<trip id="163" depart="0.00" departPos="27" from="30016215#1" to="30016215#1" type="car"/>
	<trip id="164" depart="0.00" departPos="52" from="30016215#1" to="30016215#1" type="car"/>
	<trip id="165" depart="0.00" departPos="24" from="138749229" to="138749229" type="car"/>
	<trip id="166" depart="0.00" departPos="0" from="137012666" to="137012666" type="car"/>
	<trip id="167" depart="0.00" departPos="39" from="23543753" to="23543753" type="car"/>
	<trip id="168" depart="0.00" departPos="64" from="23543753" to="23543753" type="car"/>
	<trip id="169" depart="0.00" departPos="10" from="23543758#0" to="23543758#0" type="car"/>
	<trip id="170" depart="0.00" departPos="35" from="23543758#0" to="23543758#0" type="car"/>
	<trip id="171" depart="0.00" departPos="60" from="23543758#0" to="23543758#0" type="car"/>
	<trip id="172" depart="0.00" departPos="4" from="23543758#1" to="23543758#1" type="car"/>
	<trip id="173" depart="0.00" departPos="29" from="23543758#1" to="23543758#1" type="car"/>
	<trip id="174" depart="0.00" departPos="21" from="106223645" to="106223645" type="car"/>
	<trip id="175" depart="0.00" departPos="18" from="148332964" to="148332964" type="car"/>
	<trip id="176" depart="0.00" departPos="7" from="47638901" to="47638901" type="car"/>
	<trip id="177" depart="0.00" departPos="32" from="47638901" to="47638901" type="car"/>
	<trip id="178" depart="0.00" departPos="17" from="19967244#0" to="19967244#0" type="car"/>
	<trip id="179" depart="0.00" departPos="38" from="47638902#1" to="47638902#1" type="car"/>
	<trip id="180" depart="0.00" departPos="63" from="47638902#1" to="47638902#1" type="car"/>
	<trip id="181" depart="0.00" departPos="3" from="23543732" to="23543732" type="car"/>
	<trip id="182" depart="0.00" departPos="3" from="475126989" to="475126989" type="car"/>
	<trip id="183" depart="0.00" departPos="18" from="29986379#0" to="29986379#0" type="car"/>
	<trip id="184" depart="0.00" departPos="43" from="29986379#0" to="29986379#0" type="car"/>
	<trip id="185" depart="0.00" departPos="68" from="29986379#0" to="29986379#0" type="car"/>
	<trip id="186" depart="0.00" departPos="93" from="29986379#0" to="29986379#0" type="car"/>
	<trip id="187" depart="0.00" departPos="118" from="29986379#0" to="29986379#0" type="car"/>
	<trip id="188" depart="0.00" departPos="143" from="29986379#0" to="29986379#0" type="car"/>
	<trip id="189" depart="0.00" departPos="17" from="141046371#0" to="141046371#0" type="car"/>
	<trip id="190" depart="0.00" departPos="42" from="141046371#0" to="141046371#0" type="car"/>
	<trip id="191" depart="0.00" departPos="67" from="141046371#0" to="141046371#0" type="car"/>
	<trip id="192" depart="0.00" departPos="92" from="141046371#0" to="141046371#0" type="car"/>
	<trip id="193" depart="0.00" departPos="117" from="141046371#0" to="141046371#0" type="car"/>
	<trip id="194" depart="0.00" departPos="47" from="141046371#2" to="141046371#2" type="car"/>
	<trip id="195" depart="0.00" departPos="72" from="141046371#2" to="141046371#2" type="car"/>
	<trip id="196" depart="0.00" departPos="2" from="225545134#0" to="225545134#0" type="car"/>
	<trip id="197" depart="0.00" departPos="27" from="225545134#0" to="225545134#0" type="car"/>
	<trip id="198" depart="0.00" departPos="38" from="225545134#1" to="225545134#1" type="car"/>
	<trip id="199" depart="0.00" departPos="63" from="225545134#1" to="225545134#1" type="car"/>
	<trip id="200" depart="0.00" departPos="12" from="225545134#2" to="225545134#2" type="car"/>
	<trip id="201" depart="0.00" departPos="37" from="225545134#2" to="225545134#2" type="car"/>
	<trip id="202" depart="0.00" departPos="2" from="225545134#3" to="225545134#3" type="car"/>
	<trip id="203" depart="0.00" departPos="27" from="225545134#3" to="225545134#3" type="car"/>
	<trip id="204" depart="0.00" departPos="18" from="225545134#4" to="225545134#4" type="car"/>
	<trip id="205" depart="0.00" departPos="43" from="225545134#4" to="225545134#4" type="car"/>
	<trip id="206" depart="0.00" departPos="68" from="225545134#4" to="225545134#4" type="car"/>
	<trip id="207" depart="0.00" departPos="18" from="225545134#5" to="225545134#5" type="car"/>
	<trip id="208" depart="0.00" departPos="8" from="23543761" to="23543761" type="car"/>
	<trip id="209" depart="0.00" departPos="33" from="23543761" to="23543761" type="car"/>
	<trip id="210" depart="0.00" departPos="3" from="-41865752#0" to="-41865752#0" type="car"/>
	<trip id="211" depart="0.00" departPos="28" from="-41865752#0" to="-41865752#0" type="car"/>
	<trip id="212" depart="0.00" departPos="94" from="41865752#1" to="41865752#1" type="car"/>
	<trip id="213" depart="0.00" departPos="119" from="41865752#1" to="41865752#1" type="car"/>
	<trip id="214" depart="0.00" departPos="144" from="41865752#1" to="41865752#1" type="car"/>
	<trip id="215" depart="0.00" departPos="169" from="41865752#1" to="41865752#1" type="car"/>
	<trip id="216" depart="0.00" departPos="5" from="18821051#0" to="18821051#0" type="car"/>
	<trip id="217" depart="0.00" departPos="30" from="18821051#0" to="18821051#0" type="car"/>
	<trip id="218" depart="0.00" departPos="55" from="18821051#0" to="18821051#0" type="car"/>
	<trip id="219" depart="0.00" departPos="80" from="18821051#0" to="18821051#0" type="car"/>
	<trip id="220" depart="0.00" departPos="52" from="18821051#1" to="18821051#1" type="car"/>
	<trip id="221" depart="0.00" departPos="77" from="18821051#1" to="18821051#1" type="car"/>
	<trip id="222" depart="0.00" departPos="102" from="18821051#1" to="18821051#1" type="car"/>
	<trip id="223" depart="0.00" departPos="23" from="18821051#2" to="18821051#2" type="car"/>
	<trip id="224" depart="0.00" departPos="48" from="18821051#2" to="18821051#2" type="car"/>
	<trip id="225" depart="0.00" departPos="73" from="18821051#2" to="18821051#2" type="car"/>
	<trip id="226" depart="0.00" departPos="98" from="18821051#2" to="18821051#2" type="car"/>
	<trip id="227" depart="0.00" departPos="23" from="50076181" to="50076181" type="car"/>
	<trip id="228" depart="0.00" departPos="48" from="50076181" to="50076181" type="car"/>
	<trip id="229" depart="0.00" departPos="23" from="50076178#1" to="50076178#1" type="car"/>
	<trip id="230" depart="0.00" departPos="2" from="50076178#2" to="50076178#2" type="car"/>
	<trip id="231" depart="0.00" departPos="27" from="50076178#2" to="50076178#2" type="car"/>
	<trip id="232" depart="0.00" departPos="0" from="50076178#3" to="50076178#3" type="car"/>
	<trip id="233" depart="0.00" departPos="25" from="50076178#3" to="50076178#3" type="car"/>
	<trip id="234" depart="0.00" departPos="14" from="27380643#0" to="27380643#0" type="car"/>
	<trip id="235" depart="0.00" departPos="39" from="27380643#0" to="27380643#0" type="car"/>
	<trip id="236" depart="0.00" departPos="64" from="27380643#0" to="27380643#0" type="car"/>
	<trip id="237" depart="0.00" departPos="89" from="27380643#0" to="27380643#0" type="car"/>
	<trip id="238" depart="0.00" departPos="114" from="27380643#0" to="27380643#0" type="car"/>
	<trip id="239" depart="0.00" departPos="139" from="27380643#0" to="27380643#0" type="car"/>
	<trip id="240" depart="0.00" departPos="164" from="27380643#0" to="27380643#0" type="car"/>
	<trip id="241" depart="0.00" departPos="189" from="27380643#0" to="27380643#0" type="car"/>
	<trip id="242" depart="0.00" departPos="214" from="27380643#0" to="27380643#0" type="car"/>
	<trip id="243" depart="0.00" departPos="239" from="27380643#0" to="27380643#0" type="car"/>
	<trip id="244" depart="0.00" departPos="20" from="27380643#1" to="27380643#1" type="car"/>
	<trip id="245" depart="0.00" departPos="45" from="27380643#1" to="27380643#1" type="car"/>
	<trip id="246" depart="0.00" departPos="70" from="27380643#1" to="27380643#1" type="car"/>
	<trip id="247" depart="0.00" departPos="95" from="27380643#1" to="27380643#1" type="car"/>
	<trip id="248" depart="0.00" departPos="120" from="27380643#1" to="27380643#1" type="car"/>
	<trip id="249" depart="0.00" departPos="145" from="27380643#1" to="27380643#1" type="car"/>
	<trip id="250" depart="0.00" departPos="170" from="27380643#1" to="27380643#1" type="car"/>
	<trip id="251" depart="0.00" departPos="16" from="42420009" to="42420009" type="car"/>
	<trip id="252" depart="0.00" departPos="24" from="80238865" to="80238865" type="car"/>
	<trip id="253" depart="0.00" departPos="0" from="30019418#1" to="30019418#1" type="car"/>
	<trip id="254" depart="0.00" departPos="18" from="30019294#1" to="30019294#1" type="car"/>
	<trip id="255" depart="0.00" departPos="9" from="-27198548" to="-27198548" type="car"/>
	<trip id="256" depart="0.00" departPos="57" from="29983354#1" to="29983354#1" type="car"/>
	<trip id="257" depart="0.00" departPos="82" from="29983354#1" to="29983354#1" type="car"/>
	<trip id="258" depart="0.00" departPos="107" from="29983354#1" to="29983354#1" type="car"/>
	<trip id="259" depart="0.00" departPos="17" from="30019825" to="30019825" type="car"/>
	<trip id="260" depart="0.00" departPos="42" from="30019825" to="30019825" type="car"/>
	<trip id="261" depart="0.00" departPos="67" from="30019825" to="30019825" type="car"/>
	<trip id="262" depart="0.00" departPos="92" from="30019825" to="30019825" type="car"/>
	<trip id="263" depart="0.00" departPos="117" from="30019825" to="30019825" type="car"/>
	<trip id="264" depart="0.00" departPos="22" from="30019827" to="30019827" type="car"/>
	<trip id="265" depart="0.00" departPos="47" from="30019827" to="30019827" type="car"/>
	<trip id="266" depart="0.00" departPos="72" from="30019827" to="30019827" type="car"/>
	<trip id="267" depart="0.00" departPos="22" from="-30019809" to="-30019809" type="car"/>
	<trip id="268" depart="0.00" departPos="47" from="-30019809" to="-30019809" type="car"/>
	<trip id="269" depart="0.00" departPos="3" from="27379761#2" to="27379761#2" type="car"/>
	<trip id="270" depart="0.00" departPos="28" from="27379761#2" to="27379761#2" type="car"/>
	<trip id="271" depart="0.00" departPos="53" from="27379761#2" to="27379761#2" type="car"/>
	<trip id="272" depart="0.00" departPos="78" from="27379761#2" to="27379761#2" type="car"/>
	<trip id="273" depart="0.00" departPos="31" from="-27379781#1" to="-27379781#1" type="car"/>
	<trip id="274" depart="0.00" departPos="56" from="-27379781#1" to="-27379781#1" type="car"/>
	<trip id="275" depart="0.00" departPos="18" from="30603474#0" to="30603474#0" type="car"/>
	<trip id="276" depart="0.00" departPos="43" from="30603474#0" to="30603474#0" type="car"/>
	<trip id="277" depart="0.00" departPos="23" from="30603474#1" to="30603474#1" type="car"/>
	<trip id="278" depart="0.00" departPos="48" from="30603474#1" to="30603474#1" type="car"/>
	<trip id="279" depart="0.00" departPos="16" from="27379759#1" to="27379759#1" type="car"/>
	<trip id="280" depart="0.00" departPos="8" from="-386522783" to="-386522783" type="car"/>
	<trip id="281" depart="0.00" departPos="27" from="27379761#0" to="27379761#0" type="car"/>
	<trip id="282" depart="0.00" departPos="52" from="27379761#0" to="27379761#0" type="car"/>
	<trip id="283" depart="0.00" departPos="22" from="27379761#1" to="27379761#1" type="car"/>
	<trip id="284" depart="0.00" departPos="25" from="27379760#0" to="27379760#0" type="car"/>
	<trip id="285" depart="0.00" departPos="50" from="27379760#0" to="27379760#0" type="car"/>
	<trip id="286" depart="0.00" departPos="18" from="102438485" to="102438485" type="car"/>
	<trip id="287" depart="0.00" departPos="43" from="102438485" to="102438485" type="car"/>
	<trip id="288" depart="0.00" departPos="68" from="102438485" to="102438485" type="car"/>
	<trip id="289" depart="0.00" departPos="93" from="102438485" to="102438485" type="car"/>
	<trip id="290" depart="0.00" departPos="35" from="30019290" to="30019290" type="car"/>
	<trip id="291" depart="0.00" departPos="60" from="30019290" to="30019290" type="car"/>
	<trip id="292" depart="0.00" departPos="52" from="-30019623#1" to="-30019623#1" type="car"/>
	<trip id="293" depart="0.00" departPos="77" from="-30019623#1" to="-30019623#1" type="car"/>
	<trip id="294" depart="0.00" departPos="102" from="-30019623#1" to="-30019623#1" type="car"/>
	<trip id="295" depart="0.00" departPos="28" from="-30603377#0" to="-30603377#0" type="car"/>
	<trip id="296" depart="0.00" departPos="53" from="-30603377#0" to="-30603377#0" type="car"/>
	<trip id="297" depart="0.00" departPos="22" from="-30019371" to="-30019371" type="car"/>
	<trip id="298" depart="0.00" departPos="12" from="27198543#0" to="27198543#0" type="car"/>
	<trip id="299" depart="0.00" departPos="37" from="27198543#0" to="27198543#0" type="car"/>
	<trip id="300" depart="0.00" departPos="62" from="27198543#0" to="27198543#0" type="car"/>
	<trip id="301" depart="0.00" departPos="24" from="27198543#1" to="27198543#1" type="car"/>
	<trip id="302" depart="0.00" departPos="60" from="30019486" to="30019486" type="car"/>
	<trip id="303" depart="0.00" departPos="85" from="30019486" to="30019486" type="car"/>
	<trip id="304" depart="0.00" departPos="110" from="30019486" to="30019486" type="car"/>
	<trip id="305" depart="0.00" departPos="14" from="30019768#0" to="30019768#0" type="car"/>
	<trip id="306" depart="0.00" departPos="5" from="30019768#1" to="30019768#1" type="car"/>
	<trip id="307" depart="0.00" departPos="30" from="30019768#1" to="30019768#1" type="car"/>
	<trip id="308" depart="0.00" departPos="5" from="30019768#2" to="30019768#2" type="car"/>
	<trip id="309" depart="0.00" departPos="30" from="30019768#2" to="30019768#2" type="car"/>
	<trip id="310" depart="0.00" departPos="18" from="27198543#2" to="27198543#2" type="car"/>
	<trip id="311" depart="0.00" departPos="43" from="27198543#2" to="27198543#2" type="car"/>
	<trip id="312" depart="0.00" departPos="68" from="27198543#2" to="27198543#2" type="car"/>
	<trip id="313" depart="0.00" departPos="67" from="30019531" to="30019531" type="car"/>
	<trip id="314" depart="0.00" departPos="92" from="30019531" to="30019531" type="car"/>
	<trip id="315" depart="0.00" departPos="117" from="30019531" to="30019531" type="car"/>
	<trip id="316" depart="0.00" departPos="17" from="30019570" to="30019570" type="car"/>
	<trip id="317" depart="0.00" departPos="42" from="30019570" to="30019570" type="car"/>
	<trip id="318" depart="0.00" departPos="67" from="30019570" to="30019570" type="car"/>
	<trip id="319" depart="0.00" departPos="92" from="30019570" to="30019570" type="car"/>
	<trip id="320" depart="0.00" departPos="117" from="30019570" to="30019570" type="car"/>
	<trip id="321" depart="0.00" departPos="142" from="30019570" to="30019570" type="car"/>
	<trip id="322" depart="0.00" departPos="167" from="30019570" to="30019570" type="car"/>