<?xml version="1.0" encoding="UTF-8"?>

<!-- generated on Fri Jan 11 13:27:32 2019 by Eclipse SUMO netconvert Version 1.0.1
<configuration xmlns:xsi="http://www.w3.org/2001/XMLSchema-instance" xsi:noNamespaceSchemaLocation="http://sumo.dlr.de/xsd/netconvertConfiguration.xsd">

    <input>
        <osm-files value="../maps/LA/LA.osm.xml"/>
    </input>

    <output>
        <output-file value="../maps/LA/LA.net.xml"/>
    </output>

    <projection>
        <proj.utm value="true"/>
    </projection>

</configuration>
-->

<net version="1.0" junctionCornerDetail="5" limitTurnSpeed="5.50" xmlns:xsi="http://www.w3.org/2001/XMLSchema-instance" xsi:noNamespaceSchemaLocation="http://sumo.dlr.de/xsd/net_file.xsd">

    <location netOffset="-376954.68,-3756478.43" convBoundary="0.00,0.00,4131.81,5108.98" origBoundary="-118.331755,33.941846,-118.287081,33.987932" projParameter="+proj=utm +zone=11 +ellps=WGS84 +datum=WGS84 +units=m +no_defs"/>

    <type id="highway.bridleway" priority="1" numLanes="1" speed="2.78" allow="pedestrian" oneway="1" width="2.00"/>
    <type id="highway.bus_guideway" priority="1" numLanes="1" speed="27.78" allow="bus" oneway="1"/>
    <type id="highway.cycleway" priority="1" numLanes="1" speed="8.33" allow="bicycle" oneway="0" width="1.00"/>
    <type id="highway.footway" priority="1" numLanes="1" speed="2.78" allow="pedestrian" oneway="1" width="2.00"/>
    <type id="highway.ford" priority="1" numLanes="1" speed="2.78" allow="army" oneway="0"/>
    <type id="highway.living_street" priority="3" numLanes="1" speed="2.78" disallow="tram rail_urban rail rail_electric ship" oneway="0"/>
    <type id="highway.motorway" priority="13" numLanes="2" speed="44.44" allow="private emergency authority army vip passenger hov taxi bus coach delivery truck trailer motorcycle evehicle custom1 custom2" oneway="1"/>
    <type id="highway.motorway_link" priority="12" numLanes="1" speed="22.22" allow="private emergency authority army vip passenger hov taxi bus coach delivery truck trailer motorcycle evehicle custom1 custom2" oneway="1"/>
    <type id="highway.path" priority="1" numLanes="1" speed="2.78" allow="bicycle pedestrian" oneway="1" width="2.00"/>
    <type id="highway.pedestrian" priority="1" numLanes="1" speed="2.78" allow="pedestrian" oneway="1" width="2.00"/>
    <type id="highway.primary" priority="9" numLanes="2" speed="27.78" disallow="tram rail_urban rail rail_electric ship" oneway="0"/>
    <type id="highway.primary_link" priority="8" numLanes="1" speed="22.22" disallow="tram rail_urban rail rail_electric ship" oneway="0"/>
    <type id="highway.raceway" priority="14" numLanes="2" speed="83.33" allow="vip" oneway="0"/>
    <type id="highway.residential" priority="4" numLanes="1" speed="13.89" disallow="tram rail_urban rail rail_electric ship" oneway="0"/>
    <type id="highway.secondary" priority="7" numLanes="2" speed="27.78" disallow="tram rail_urban rail rail_electric ship" oneway="0"/>
    <type id="highway.secondary_link" priority="6" numLanes="1" speed="22.22" disallow="tram rail_urban rail rail_electric ship" oneway="0"/>
    <type id="highway.service" priority="2" numLanes="1" speed="5.56" allow="delivery bicycle pedestrian" oneway="0"/>
    <type id="highway.stairs" priority="1" numLanes="1" speed="1.39" allow="pedestrian" oneway="1" width="2.00"/>
    <type id="highway.step" priority="1" numLanes="1" speed="1.39" allow="pedestrian" oneway="1" width="2.00"/>
    <type id="highway.steps" priority="1" numLanes="1" speed="1.39" allow="pedestrian" oneway="1" width="2.00"/>
    <type id="highway.tertiary" priority="6" numLanes="1" speed="22.22" disallow="tram rail_urban rail rail_electric ship" oneway="0"/>
    <type id="highway.tertiary_link" priority="5" numLanes="1" speed="22.22" disallow="tram rail_urban rail rail_electric ship" oneway="0"/>
    <type id="highway.track" priority="1" numLanes="1" speed="5.56" disallow="tram rail_urban rail rail_electric ship" oneway="0"/>
    <type id="highway.trunk" priority="11" numLanes="2" speed="27.78" disallow="tram rail_urban rail rail_electric bicycle pedestrian ship" oneway="0"/>
    <type id="highway.trunk_link" priority="10" numLanes="1" speed="22.22" disallow="tram rail_urban rail rail_electric bicycle pedestrian ship" oneway="0"/>
    <type id="highway.unclassified" priority="5" numLanes="1" speed="13.89" disallow="tram rail_urban rail rail_electric ship" oneway="0"/>
    <type id="highway.unsurfaced" priority="1" numLanes="1" speed="8.33" disallow="tram rail_urban rail rail_electric ship" oneway="0"/>
    <type id="railway.light_rail" priority="15" numLanes="1" speed="27.78" allow="rail_urban" oneway="1"/>
    <type id="railway.preserved" priority="15" numLanes="1" speed="27.78" allow="rail" oneway="1"/>
    <type id="railway.rail" priority="15" numLanes="1" speed="83.33" allow="rail rail_electric" oneway="1"/>
    <type id="railway.subway" priority="15" numLanes="1" speed="27.78" allow="rail_urban" oneway="1"/>
    <type id="railway.tram" priority="15" numLanes="1" speed="13.89" allow="tram" oneway="1"/>

    <edge id=":122666532_0" function="internal">
        <lane id=":122666532_0_0" index="0" allow="delivery bicycle pedestrian" speed="3.65" length="4.67" shape="1302.31,2731.70 1303.65,2732.23 1304.21,2732.93 1303.98,2733.80 1302.98,2734.83"/>
    </edge>
    <edge id=":122666592_0" function="internal">
        <lane id=":122666592_0_0" index="0" disallow="tram rail_urban rail rail_electric ship" speed="13.89" length="16.88" shape="1207.09,2739.97 1194.92,2728.28"/>
    </edge>
    <edge id=":122666592_1" function="internal">
        <lane id=":122666592_1_0" index="0" disallow="tram rail_urban rail rail_electric ship" speed="13.31" length="5.70" shape="1207.09,2739.97 1205.17,2737.38 1204.29,2735.07"/>
    </edge>
    <edge id=":122666592_2" function="internal">
        <lane id=":122666592_2_0" index="0" disallow="tram rail_urban rail rail_electric ship" speed="3.65" length="2.34" shape="1207.09,2739.97 1206.77,2738.57 1207.03,2737.71"/>
    </edge>
    <edge id=":122666592_9" function="internal">
        <lane id=":122666592_9_0" index="0" speed="13.31" length="11.63" shape="1204.29,2735.07 1203.81,2733.79 1203.00,2729.20 1202.74,2723.61"/>
    </edge>
    <edge id=":122666592_10" function="internal">
        <lane id=":122666592_10_0" index="0" speed="3.65" length="2.34" shape="1207.03,2737.71 1207.87,2737.41 1209.30,2737.66"/>
    </edge>
    <edge id=":122666592_3" function="internal">
        <lane id=":122666592_3_0" index="0" disallow="tram rail_urban rail rail_electric ship" speed="12.31" length="14.74" shape="1205.94,2723.62 1206.14,2728.55 1206.76,2732.53 1207.81,2735.57 1209.30,2737.66"/>
    </edge>
    <edge id=":122666592_4" function="internal">
        <lane id=":122666592_4_0" index="0" disallow="tram rail_urban rail rail_electric ship" speed="7.41" length="19.03" shape="1205.94,2723.62 1205.23,2729.62 1203.16,2732.40 1199.72,2731.95 1194.92,2728.28"/>
    </edge>
    <edge id=":122666592_5" function="internal">
        <lane id=":122666592_5_0" index="0" disallow="tram rail_urban rail rail_electric ship" speed="3.65" length="4.67" shape="1205.94,2723.62 1205.14,2724.82 1204.34,2725.21 1203.54,2724.81 1202.74,2723.61"/>
    </edge>
    <edge id=":122666592_6" function="internal">
        <lane id=":122666592_6_0" index="0" disallow="tram rail_urban rail rail_electric ship" speed="5.48" length="9.67" shape="1197.14,2725.97 1199.58,2727.84 1201.33,2728.07 1202.38,2726.66 1202.74,2723.61"/>
    </edge>
    <edge id=":122666592_7" function="internal">
        <lane id=":122666592_7_0" index="0" disallow="tram rail_urban rail rail_electric ship" speed="13.89" length="16.86" shape="1197.14,2725.97 1209.30,2737.66"/>
    </edge>
    <edge id=":122666592_8" function="internal">
        <lane id=":122666592_8_0" index="0" disallow="tram rail_urban rail rail_electric ship" speed="3.65" length="2.34" shape="1197.14,2725.97 1197.45,2727.38 1197.18,2728.24"/>
    </edge>
    <edge id=":122666592_11" function="internal">
        <lane id=":122666592_11_0" index="0" speed="3.65" length="2.34" shape="1197.18,2728.24 1196.34,2728.54 1194.92,2728.28"/>
    </edge>
    <edge id=":122683801_0" function="internal">
        <lane id=":122683801_0_0" index="0" disallow="tram rail_urban rail rail_electric ship" speed="6.56" length="9.12" shape="1279.73,1225.02 1279.33,1222.55 1278.24,1220.79 1276.46,1219.75 1274.00,1219.43"/>
    </edge>
    <edge id=":122683801_1" function="internal">
        <lane id=":122683801_1_0" index="0" disallow="tram rail_urban rail rail_electric ship" speed="27.78" length="14.46" shape="1279.73,1225.02 1279.48,1210.55"/>
        <lane id=":122683801_1_1" index="1" disallow="tram rail_urban rail rail_electric ship" speed="27.78" length="14.46" shape="1282.93,1224.95 1282.68,1210.51"/>
    </edge>
    <edge id=":122683801_3" function="internal">
        <lane id=":122683801_3_0" index="0" disallow="tram rail_urban rail rail_electric ship" speed="8.65" length="7.76" shape="1282.93,1224.95 1283.60,1221.08 1285.79,1218.28 1286.04,1218.17"/>
    </edge>
    <edge id=":122683801_4" function="internal">
        <lane id=":122683801_4_0" index="0" disallow="tram rail_urban rail rail_electric ship" speed="3.65" length="2.57" shape="1282.93,1224.95 1283.71,1223.74 1284.50,1223.32 1284.71,1223.42"/>
    </edge>
    <edge id=":122683801_17" function="internal">
        <lane id=":122683801_17_0" index="0" speed="8.65" length="9.10" shape="1286.04,1218.17 1289.51,1216.57 1294.75,1215.95"/>
    </edge>
    <edge id=":122683801_18" function="internal">
        <lane id=":122683801_18_0" index="0" speed="3.65" length="2.10" shape="1284.71,1223.42 1285.30,1223.70 1286.13,1224.88"/>
    </edge>
    <edge id=":122683801_5" function="internal">
        <lane id=":122683801_5_0" index="0" disallow="tram rail_urban rail rail_electric ship" speed="7.30" length="11.70" shape="1294.79,1219.15 1290.96,1219.55 1288.23,1220.64 1286.63,1222.42 1286.13,1224.88"/>
    </edge>
    <edge id=":122683801_6" function="internal">
        <lane id=":122683801_6_0" index="0" disallow="tram rail_urban rail rail_electric ship" speed="13.89" length="20.80" shape="1294.79,1219.15 1274.00,1219.43"/>
    </edge>
    <edge id=":122683801_7" function="internal">
        <lane id=":122683801_7_0" index="0" disallow="tram rail_urban rail rail_electric ship" speed="8.67" length="16.86" shape="1294.79,1219.15 1289.54,1218.67 1285.76,1217.07 1283.48,1214.35 1282.68,1210.51"/>
    </edge>
    <edge id=":122683801_8" function="internal">
        <lane id=":122683801_8_0" index="0" disallow="tram rail_urban rail rail_electric ship" speed="3.65" length="4.67" shape="1294.79,1219.15 1293.58,1218.37 1293.17,1217.57 1293.56,1216.77 1294.75,1215.95"/>
    </edge>
    <edge id=":122683801_9" function="internal">
        <lane id=":122683801_9_0" index="0" disallow="tram rail_urban rail rail_electric ship" speed="6.51" length="9.03" shape="1289.08,1210.43 1289.46,1212.87 1290.53,1214.61 1292.30,1215.63 1294.75,1215.95"/>
    </edge>
    <edge id=":122683801_10" function="internal">
        <lane id=":122683801_10_0" index="0" disallow="tram rail_urban rail rail_electric ship" speed="27.78" length="14.83" shape="1289.08,1210.43 1288.64,1215.09 1287.60,1218.55 1286.56,1221.55 1286.13,1224.88"/>
    </edge>
    <edge id=":122683801_11" function="internal">
        <lane id=":122683801_11_0" index="0" disallow="tram rail_urban rail rail_electric ship" speed="8.67" length="5.23" shape="1285.88,1210.47 1285.18,1214.33 1284.36,1215.35"/>
    </edge>
    <edge id=":122683801_12" function="internal">
        <lane id=":122683801_12_0" index="0" disallow="tram rail_urban rail rail_electric ship" speed="3.65" length="2.34" shape="1285.88,1210.47 1285.09,1211.68 1284.30,1212.09"/>
    </edge>
    <edge id=":122683801_19" function="internal">
        <lane id=":122683801_19_0" index="0" speed="8.67" length="11.62" shape="1284.36,1215.35 1282.96,1217.11 1279.24,1218.81 1274.00,1219.43"/>
    </edge>
    <edge id=":122683801_20" function="internal">
        <lane id=":122683801_20_0" index="0" speed="3.65" length="2.34" shape="1284.30,1212.09 1283.49,1211.70 1282.68,1210.51"/>
    </edge>
    <edge id=":122683801_13" function="internal">
        <lane id=":122683801_13_0" index="0" disallow="tram rail_urban rail rail_electric ship" speed="6.51" length="9.04" shape="1273.95,1216.23 1276.40,1215.85 1278.13,1214.77 1279.16,1213.01 1279.48,1210.55"/>
    </edge>
    <edge id=":122683801_14" function="internal">
        <lane id=":122683801_14_0" index="0" disallow="tram rail_urban rail rail_electric ship" speed="13.89" length="20.80" shape="1273.95,1216.23 1294.75,1215.95"/>
    </edge>
    <edge id=":122683801_15" function="internal">
        <lane id=":122683801_15_0" index="0" disallow="tram rail_urban rail rail_electric ship" speed="8.71" length="16.89" shape="1273.95,1216.23 1279.21,1216.71 1282.99,1218.31 1285.30,1221.04 1286.13,1224.88"/>
    </edge>
    <edge id=":122683801_16" function="internal">
        <lane id=":122683801_16_0" index="0" disallow="tram rail_urban rail rail_electric ship" speed="3.65" length="4.67" shape="1273.95,1216.23 1275.16,1217.02 1275.57,1217.81 1275.18,1218.62 1274.00,1219.43"/>
    </edge>
    <edge id=":122683804_0" function="internal">
        <lane id=":122683804_0_0" index="0" disallow="tram rail_urban rail rail_electric ship" speed="6.52" length="9.04" shape="1179.27,1226.31 1178.89,1223.86 1177.81,1222.12 1176.04,1221.09 1173.59,1220.77"/>
    </edge>
    <edge id=":122683804_1" function="internal">
        <lane id=":122683804_1_0" index="0" disallow="tram rail_urban rail rail_electric ship" speed="13.89" length="14.41" shape="1179.27,1226.31 1179.08,1211.90"/>
    </edge>
    <edge id=":122683804_2" function="internal">
        <lane id=":122683804_2_0" index="0" disallow="tram rail_urban rail rail_electric ship" speed="8.00" length="14.20" shape="1179.27,1226.31 1179.77,1222.45 1181.37,1219.67 1184.10,1217.98 1187.95,1217.38"/>
    </edge>
    <edge id=":122683804_3" function="internal">
        <lane id=":122683804_3_0" index="0" disallow="tram rail_urban rail rail_electric ship" speed="3.65" length="4.67" shape="1179.27,1226.31 1180.05,1225.10 1180.85,1224.68 1181.65,1225.07 1182.47,1226.26"/>
    </edge>
    <edge id=":122683804_4" function="internal">
        <lane id=":122683804_4_0" index="0" disallow="tram rail_urban rail rail_electric ship" speed="6.50" length="9.03" shape="1187.99,1220.58 1185.54,1220.97 1183.81,1222.04 1182.79,1223.80 1182.47,1226.26"/>
    </edge>
    <edge id=":122683804_5" function="internal">
        <lane id=":122683804_5_0" index="0" disallow="tram rail_urban rail rail_electric ship" speed="13.89" length="14.40" shape="1187.99,1220.58 1173.59,1220.77"/>
    </edge>
    <edge id=":122683804_6" function="internal">
        <lane id=":122683804_6_0" index="0" disallow="tram rail_urban rail rail_electric ship" speed="8.00" length="5.93" shape="1187.99,1220.58 1184.13,1220.08 1182.37,1219.06"/>
    </edge>
    <edge id=":122683804_7" function="internal">
        <lane id=":122683804_7_0" index="0" disallow="tram rail_urban rail rail_electric ship" speed="3.65" length="2.34" shape="1187.99,1220.58 1186.78,1219.80 1186.37,1219.00"/>
    </edge>
    <edge id=":122683804_16" function="internal">
        <lane id=":122683804_16_0" index="0" speed="8.00" length="8.27" shape="1182.37,1219.06 1181.36,1218.47 1179.67,1215.74 1179.08,1211.90"/>
    </edge>
    <edge id=":122683804_17" function="internal">
        <lane id=":122683804_17_0" index="0" speed="3.65" length="2.34" shape="1186.37,1219.00 1186.76,1218.20 1187.95,1217.38"/>
    </edge>
    <edge id=":122683804_8" function="internal">
        <lane id=":122683804_8_0" index="0" disallow="tram rail_urban rail rail_electric ship" speed="6.51" length="9.03" shape="1182.28,1211.86 1182.66,1214.30 1183.73,1216.04 1185.49,1217.07 1187.95,1217.38"/>
    </edge>
    <edge id=":122683804_9" function="internal">
        <lane id=":122683804_9_0" index="0" disallow="tram rail_urban rail rail_electric ship" speed="13.89" length="14.40" shape="1182.28,1211.86 1182.47,1226.26"/>
    </edge>
    <edge id=":122683804_10" function="internal">
        <lane id=":122683804_10_0" index="0" disallow="tram rail_urban rail rail_electric ship" speed="8.01" length="14.19" shape="1182.28,1211.86 1181.77,1215.71 1180.16,1218.49 1177.43,1220.17 1173.59,1220.77"/>
    </edge>
    <edge id=":122683804_11" function="internal">
        <lane id=":122683804_11_0" index="0" disallow="tram rail_urban rail rail_electric ship" speed="3.65" length="4.67" shape="1182.28,1211.86 1181.49,1213.07 1180.70,1213.48 1179.89,1213.09 1179.08,1211.90"/>
    </edge>
    <edge id=":122683804_12" function="internal">
        <lane id=":122683804_12_0" index="0" disallow="tram rail_urban rail rail_electric ship" speed="6.51" length="9.04" shape="1173.55,1217.57 1175.99,1217.19 1177.73,1216.12 1178.76,1214.35 1179.08,1211.90"/>
    </edge>
    <edge id=":122683804_13" function="internal">
        <lane id=":122683804_13_0" index="0" disallow="tram rail_urban rail rail_electric ship" speed="13.89" length="14.40" shape="1173.55,1217.57 1187.95,1217.38"/>
    </edge>
    <edge id=":122683804_14" function="internal">
        <lane id=":122683804_14_0" index="0" disallow="tram rail_urban rail rail_electric ship" speed="8.01" length="5.93" shape="1173.55,1217.57 1177.40,1218.07 1179.16,1219.10"/>
    </edge>
    <edge id=":122683804_15" function="internal">
        <lane id=":122683804_15_0" index="0" disallow="tram rail_urban rail rail_electric ship" speed="3.65" length="2.34" shape="1173.55,1217.57 1174.76,1218.36 1175.17,1219.15"/>
    </edge>
    <edge id=":122683804_18" function="internal">
        <lane id=":122683804_18_0" index="0" speed="8.01" length="8.27" shape="1179.16,1219.10 1180.17,1219.69 1181.86,1222.42 1182.47,1226.26"/>
    </edge>
    <edge id=":122683804_19" function="internal">
        <lane id=":122683804_19_0" index="0" speed="3.65" length="2.34" shape="1175.17,1219.15 1174.78,1219.96 1173.59,1220.77"/>
    </edge>
    <edge id=":122683807_0" function="internal">
        <lane id=":122683807_0_0" index="0" disallow="tram rail_urban rail rail_electric ship" speed="6.50" length="9.03" shape="1079.04,1227.64 1078.66,1225.19 1077.59,1223.46 1075.82,1222.43 1073.37,1222.12"/>
    </edge>
    <edge id=":122683807_1" function="internal">
        <lane id=":122683807_1_0" index="0" disallow="tram rail_urban rail rail_electric ship" speed="13.89" length="14.41" shape="1079.04,1227.64 1078.86,1213.23"/>
    </edge>
    <edge id=":122683807_2" function="internal">
        <lane id=":122683807_2_0" index="0" disallow="tram rail_urban rail rail_electric ship" speed="8.01" length="5.93" shape="1079.04,1227.64 1079.54,1223.78 1080.57,1222.01"/>
    </edge>
    <edge id=":122683807_3" function="internal">
        <lane id=":122683807_3_0" index="0" disallow="tram rail_urban rail rail_electric ship" speed="3.65" length="2.34" shape="1079.04,1227.64 1079.82,1226.43 1080.62,1226.02"/>
    </edge>
    <edge id=":122683807_16" function="internal">
        <lane id=":122683807_16_0" index="0" speed="8.01" length="8.26" shape="1080.57,1222.01 1081.16,1221.01 1083.88,1219.32 1087.73,1218.72"/>
    </edge>
    <edge id=":122683807_17" function="internal">
        <lane id=":122683807_17_0" index="0" speed="3.65" length="2.34" shape="1080.62,1226.02 1081.42,1226.41 1082.24,1227.60"/>
    </edge>
    <edge id=":122683807_4" function="internal">
        <lane id=":122683807_4_0" index="0" disallow="tram rail_urban rail rail_electric ship" speed="6.51" length="9.04" shape="1087.77,1221.92 1085.32,1222.30 1083.59,1223.37 1082.56,1225.14 1082.24,1227.60"/>
    </edge>
    <edge id=":122683807_5" function="internal">
        <lane id=":122683807_5_0" index="0" disallow="tram rail_urban rail rail_electric ship" speed="13.89" length="14.41" shape="1087.77,1221.92 1073.37,1222.12"/>
    </edge>
    <edge id=":122683807_6" function="internal">
        <lane id=":122683807_6_0" index="0" disallow="tram rail_urban rail rail_electric ship" speed="8.00" length="14.20" shape="1087.77,1221.92 1083.91,1221.42 1081.14,1219.80 1079.46,1217.07 1078.86,1213.23"/>
    </edge>
    <edge id=":122683807_7" function="internal">
        <lane id=":122683807_7_0" index="0" disallow="tram rail_urban rail rail_electric ship" speed="3.65" length="4.67" shape="1087.77,1221.92 1086.56,1221.13 1086.15,1220.34 1086.54,1219.53 1087.73,1218.72"/>
    </edge>
    <edge id=":122683807_8" function="internal">
        <lane id=":122683807_8_0" index="0" disallow="tram rail_urban rail rail_electric ship" speed="6.51" length="9.03" shape="1082.06,1213.19 1082.44,1215.64 1083.51,1217.37 1085.27,1218.40 1087.73,1218.72"/>
    </edge>
    <edge id=":122683807_9" function="internal">
        <lane id=":122683807_9_0" index="0" disallow="tram rail_urban rail rail_electric ship" speed="13.89" length="14.41" shape="1082.06,1213.19 1082.24,1227.60"/>
    </edge>
    <edge id=":122683807_10" function="internal">
        <lane id=":122683807_10_0" index="0" disallow="tram rail_urban rail rail_electric ship" speed="8.01" length="5.93" shape="1082.06,1213.19 1081.56,1217.05 1080.53,1218.81"/>
    </edge>
    <edge id=":122683807_11" function="internal">
        <lane id=":122683807_11_0" index="0" disallow="tram rail_urban rail rail_electric ship" speed="3.65" length="2.34" shape="1082.06,1213.19 1081.27,1214.40 1080.48,1214.81"/>
    </edge>
    <edge id=":122683807_18" function="internal">
        <lane id=":122683807_18_0" index="0" speed="8.01" length="8.27" shape="1080.53,1218.81 1079.94,1219.82 1077.21,1221.51 1073.37,1222.12"/>
    </edge>
    <edge id=":122683807_19" function="internal">
        <lane id=":122683807_19_0" index="0" speed="3.65" length="2.34" shape="1080.48,1214.81 1079.67,1214.42 1078.86,1213.23"/>
    </edge>
    <edge id=":122683807_12" function="internal">
        <lane id=":122683807_12_0" index="0" disallow="tram rail_urban rail rail_electric ship" speed="6.52" length="9.05" shape="1073.32,1218.92 1075.77,1218.53 1077.51,1217.45 1078.54,1215.69 1078.86,1213.23"/>
    </edge>
    <edge id=":122683807_13" function="internal">
        <lane id=":122683807_13_0" index="0" disallow="tram rail_urban rail rail_electric ship" speed="13.89" length="14.41" shape="1073.32,1218.92 1087.73,1218.72"/>
    </edge>
    <edge id=":122683807_14" function="internal">
        <lane id=":122683807_14_0" index="0" disallow="tram rail_urban rail rail_electric ship" speed="8.00" length="14.20" shape="1073.32,1218.92 1077.18,1219.41 1079.95,1221.02 1081.64,1223.75 1082.24,1227.60"/>
    </edge>
    <edge id=":122683807_15" function="internal">
        <lane id=":122683807_15_0" index="0" disallow="tram rail_urban rail rail_electric ship" speed="3.65" length="4.67" shape="1073.32,1218.92 1074.53,1219.70 1074.94,1220.49 1074.55,1221.30 1073.37,1222.12"/>
    </edge>
    <edge id=":122683809_0" function="internal">
        <lane id=":122683809_0_0" index="0" disallow="tram rail_urban rail rail_electric ship" speed="6.51" length="9.04" shape="978.82,1229.08 978.44,1226.63 977.36,1224.90 975.60,1223.87 973.14,1223.55"/>
    </edge>
    <edge id=":122683809_1" function="internal">
        <lane id=":122683809_1_0" index="0" disallow="tram rail_urban rail rail_electric ship" speed="13.89" length="14.40" shape="978.82,1229.08 978.62,1214.68"/>
    </edge>
    <edge id=":122683809_2" function="internal">
        <lane id=":122683809_2_0" index="0" disallow="tram rail_urban rail rail_electric ship" speed="8.00" length="5.93" shape="978.82,1229.08 979.32,1225.22 980.35,1223.46"/>
    </edge>
    <edge id=":122683809_3" function="internal">
        <lane id=":122683809_3_0" index="0" disallow="tram rail_urban rail rail_electric ship" speed="3.65" length="2.34" shape="978.82,1229.08 979.61,1227.87 980.40,1227.46"/>
    </edge>
    <edge id=":122683809_16" function="internal">
        <lane id=":122683809_16_0" index="0" speed="8.00" length="8.26" shape="980.35,1223.46 980.93,1222.45 983.66,1220.76 987.50,1220.15"/>
    </edge>
    <edge id=":122683809_17" function="internal">
        <lane id=":122683809_17_0" index="0" speed="3.65" length="2.34" shape="980.40,1227.46 981.21,1227.84 982.02,1229.03"/>
    </edge>
    <edge id=":122683809_4" function="internal">
        <lane id=":122683809_4_0" index="0" disallow="tram rail_urban rail rail_electric ship" speed="6.51" length="9.03" shape="987.55,1223.35 985.10,1223.74 983.37,1224.81 982.34,1226.58 982.02,1229.03"/>
    </edge>
    <edge id=":122683809_5" function="internal">
        <lane id=":122683809_5_0" index="0" disallow="tram rail_urban rail rail_electric ship" speed="13.89" length="14.41" shape="987.55,1223.35 973.14,1223.55"/>
    </edge>
    <edge id=":122683809_6" function="internal">
        <lane id=":122683809_6_0" index="0" disallow="tram rail_urban rail rail_electric ship" speed="8.00" length="14.20" shape="987.55,1223.35 983.69,1222.86 980.92,1221.25 979.23,1218.52 978.62,1214.68"/>
    </edge>
    <edge id=":122683809_7" function="internal">
        <lane id=":122683809_7_0" index="0" disallow="tram rail_urban rail rail_electric ship" speed="3.65" length="4.67" shape="987.55,1223.35 986.34,1222.57 985.93,1221.78 986.31,1220.97 987.50,1220.15"/>
    </edge>
    <edge id=":122683809_8" function="internal">
        <lane id=":122683809_8_0" index="0" disallow="tram rail_urban rail rail_electric ship" speed="6.51" length="9.03" shape="981.82,1214.63 982.21,1217.08 983.28,1218.81 985.05,1219.84 987.50,1220.15"/>
    </edge>
    <edge id=":122683809_9" function="internal">
        <lane id=":122683809_9_0" index="0" disallow="tram rail_urban rail rail_electric ship" speed="13.89" length="14.40" shape="981.82,1214.63 982.02,1229.03"/>
    </edge>
    <edge id=":122683809_10" function="internal">
        <lane id=":122683809_10_0" index="0" disallow="tram rail_urban rail rail_electric ship" speed="8.00" length="5.93" shape="981.82,1214.63 981.33,1218.49 980.30,1220.25"/>
    </edge>
    <edge id=":122683809_11" function="internal">
        <lane id=":122683809_11_0" index="0" disallow="tram rail_urban rail rail_electric ship" speed="3.65" length="2.34" shape="981.82,1214.63 981.04,1215.84 980.25,1216.25"/>
    </edge>
    <edge id=":122683809_18" function="internal">
        <lane id=":122683809_18_0" index="0" speed="8.00" length="8.27" shape="980.30,1220.25 979.71,1221.26 976.98,1222.95 973.14,1223.55"/>
    </edge>
    <edge id=":122683809_19" function="internal">
        <lane id=":122683809_19_0" index="0" speed="3.65" length="2.34" shape="980.25,1216.25 979.44,1215.87 978.62,1214.68"/>
    </edge>
    <edge id=":122683809_12" function="internal">
        <lane id=":122683809_12_0" index="0" disallow="tram rail_urban rail rail_electric ship" speed="6.50" length="9.03" shape="973.10,1220.35 975.55,1219.97 977.28,1218.90 978.31,1217.13 978.62,1214.68"/>
    </edge>
    <edge id=":122683809_13" function="internal">
        <lane id=":122683809_13_0" index="0" disallow="tram rail_urban rail rail_electric ship" speed="13.89" length="14.40" shape="973.10,1220.35 987.50,1220.15"/>
    </edge>
    <edge id=":122683809_14" function="internal">
        <lane id=":122683809_14_0" index="0" disallow="tram rail_urban rail rail_electric ship" speed="8.01" length="14.20" shape="973.10,1220.35 976.96,1220.85 979.73,1222.46 981.42,1225.19 982.02,1229.03"/>
    </edge>
    <edge id=":122683809_15" function="internal">
        <lane id=":122683809_15_0" index="0" disallow="tram rail_urban rail rail_electric ship" speed="3.65" length="4.67" shape="973.10,1220.35 974.31,1221.13 974.72,1221.93 974.33,1222.73 973.14,1223.55"/>
    </edge>
    <edge id=":122683811_0" function="internal">
        <lane id=":122683811_0_0" index="0" disallow="tram rail_urban rail rail_electric ship" speed="6.51" length="9.04" shape="877.13,1230.35 876.74,1227.90 875.67,1226.16 873.90,1225.14 871.45,1224.82"/>
    </edge>
    <edge id=":122683811_1" function="internal">
        <lane id=":122683811_1_0" index="0" disallow="tram rail_urban rail rail_electric ship" speed="13.89" length="14.40" shape="877.13,1230.35 876.93,1215.95"/>
    </edge>
    <edge id=":122683811_2" function="internal">
        <lane id=":122683811_2_0" index="0" disallow="tram rail_urban rail rail_electric ship" speed="8.00" length="5.93" shape="877.13,1230.35 877.62,1226.49 878.65,1224.72"/>
    </edge>
    <edge id=":122683811_3" function="internal">
        <lane id=":122683811_3_0" index="0" disallow="tram rail_urban rail rail_electric ship" speed="3.65" length="2.34" shape="877.13,1230.35 877.91,1229.14 878.70,1228.73"/>
    </edge>
    <edge id=":122683811_16" function="internal">
        <lane id=":122683811_16_0" index="0" speed="8.00" length="8.26" shape="878.65,1224.72 879.24,1223.72 881.97,1222.03 885.81,1221.43"/>
    </edge>
    <edge id=":122683811_17" function="internal">
        <lane id=":122683811_17_0" index="0" speed="3.65" length="2.34" shape="878.70,1228.73 879.51,1229.12 880.33,1230.31"/>
    </edge>
    <edge id=":122683811_4" function="internal">
        <lane id=":122683811_4_0" index="0" disallow="tram rail_urban rail rail_electric ship" speed="6.50" length="9.03" shape="885.85,1224.63 883.41,1225.01 881.67,1226.09 880.64,1227.85 880.33,1230.31"/>
    </edge>
    <edge id=":122683811_5" function="internal">
        <lane id=":122683811_5_0" index="0" disallow="tram rail_urban rail rail_electric ship" speed="13.89" length="14.40" shape="885.85,1224.63 871.45,1224.82"/>
    </edge>
    <edge id=":122683811_6" function="internal">
        <lane id=":122683811_6_0" index="0" disallow="tram rail_urban rail rail_electric ship" speed="8.00" length="14.20" shape="885.85,1224.63 881.99,1224.13 879.22,1222.52 877.53,1219.79 876.93,1215.95"/>
    </edge>