<?xml version="1.0" encoding="UTF-8"?>

<!-- generated on Thu Dec 20 10:08:28 2018 by Eclipse SUMO netconvert Version 1.0.1
<configuration xmlns:xsi="http://www.w3.org/2001/XMLSchema-instance" xsi:noNamespaceSchemaLocation="http://sumo.dlr.de/xsd/netconvertConfiguration.xsd">

    <input>
        <osm-files value="../maps/testMap/osm.osm.xml"/>
    </input>

    <output>
        <output-file value="../maps/testMap/osm.net.xml"/>
    </output>

    <projection>
        <proj.utm value="true"/>
    </projection>

</configuration>
-->

<net version="1.0" junctionCornerDetail="5" limitTurnSpeed="5.50" xmlns:xsi="http://www.w3.org/2001/XMLSchema-instance" xsi:noNamespaceSchemaLocation="http://sumo.dlr.de/xsd/net_file.xsd">

    <location netOffset="-389627.38,-5818992.05" convBoundary="0.00,0.00,1674.25,1098.59" origBoundary="13.373050,52.510007,13.408781,52.519734" projParameter="+proj=utm +zone=33 +ellps=WGS84 +datum=WGS84 +units=m +no_defs"/>

    <type id="highway.bridleway" priority="1" numLanes="1" speed="2.78" allow="pedestrian" oneway="1" width="2.00"/>
    <type id="highway.bus_guideway" priority="1" numLanes="1" speed="27.78" allow="bus" oneway="1"/>
    <type id="highway.cycleway" priority="1" numLanes="1" speed="8.33" allow="bicycle" oneway="0" width="1.00"/>
    <type id="highway.footway" priority="1" numLanes="1" speed="2.78" allow="pedestrian" oneway="1" width="2.00"/>
    <type id="highway.ford" priority="1" numLanes="1" speed="2.78" allow="army" oneway="0"/>
    <type id="highway.living_street" priority="3" numLanes="1" speed="2.78" disallow="tram rail_urban rail rail_electric ship" oneway="0"/>
    <type id="highway.motorway" priority="13" numLanes="2" speed="44.44" allow="private emergency authority army vip passenger hov taxi bus coach delivery truck trailer motorcycle evehicle custom1 custom2" oneway="1"/>
    <type id="highway.motorway_link" priority="12" numLanes="1" speed="22.22" allow="private emergency authority army vip passenger hov taxi bus coach delivery truck trailer motorcycle evehicle custom1 custom2" oneway="1"/>
    <type id="highway.path" priority="1" numLanes="1" speed="2.78" allow="bicycle pedestrian" oneway="1" width="2.00"/>
    <type id="highway.pedestrian" priority="1" numLanes="1" speed="2.78" allow="pedestrian" oneway="1" width="2.00"/>
    <type id="highway.primary" priority="9" numLanes="2" speed="27.78" disallow="tram rail_urban rail rail_electric ship" oneway="0"/>
    <type id="highway.primary_link" priority="8" numLanes="1" speed="22.22" disallow="tram rail_urban rail rail_electric ship" oneway="0"/>
    <type id="highway.raceway" priority="14" numLanes="2" speed="83.33" allow="vip" oneway="0"/>
    <type id="highway.residential" priority="4" numLanes="1" speed="13.89" disallow="tram rail_urban rail rail_electric ship" oneway="0"/>
    <type id="highway.secondary" priority="7" numLanes="2" speed="27.78" disallow="tram rail_urban rail rail_electric ship" oneway="0"/>
    <type id="highway.secondary_link" priority="6" numLanes="1" speed="22.22" disallow="tram rail_urban rail rail_electric ship" oneway="0"/>
    <type id="highway.service" priority="2" numLanes="1" speed="5.56" allow="delivery bicycle pedestrian" oneway="0"/>
    <type id="highway.stairs" priority="1" numLanes="1" speed="1.39" allow="pedestrian" oneway="1" width="2.00"/>
    <type id="highway.step" priority="1" numLanes="1" speed="1.39" allow="pedestrian" oneway="1" width="2.00"/>
    <type id="highway.steps" priority="1" numLanes="1" speed="1.39" allow="pedestrian" oneway="1" width="2.00"/>
    <type id="highway.tertiary" priority="6" numLanes="1" speed="22.22" disallow="tram rail_urban rail rail_electric ship" oneway="0"/>
    <type id="highway.tertiary_link" priority="5" numLanes="1" speed="22.22" disallow="tram rail_urban rail rail_electric ship" oneway="0"/>
    <type id="highway.track" priority="1" numLanes="1" speed="5.56" disallow="tram rail_urban rail rail_electric ship" oneway="0"/>
    <type id="highway.trunk" priority="11" numLanes="2" speed="27.78" disallow="tram rail_urban rail rail_electric bicycle pedestrian ship" oneway="0"/>
    <type id="highway.trunk_link" priority="10" numLanes="1" speed="22.22" disallow="tram rail_urban rail rail_electric bicycle pedestrian ship" oneway="0"/>
    <type id="highway.unclassified" priority="5" numLanes="1" speed="13.89" disallow="tram rail_urban rail rail_electric ship" oneway="0"/>
    <type id="highway.unsurfaced" priority="1" numLanes="1" speed="8.33" disallow="tram rail_urban rail rail_electric ship" oneway="0"/>
    <type id="railway.light_rail" priority="15" numLanes="1" speed="27.78" allow="rail_urban" oneway="1"/>
    <type id="railway.preserved" priority="15" numLanes="1" speed="27.78" allow="rail" oneway="1"/>
    <type id="railway.rail" priority="15" numLanes="1" speed="83.33" allow="rail rail_electric" oneway="1"/>
    <type id="railway.subway" priority="15" numLanes="1" speed="27.78" allow="rail_urban" oneway="1"/>
    <type id="railway.tram" priority="15" numLanes="1" speed="13.89" allow="tram" oneway="1"/>

    <edge id=":1206481791_0" function="internal">
        <lane id=":1206481791_0_0" index="0" allow="delivery bicycle pedestrian" speed="6.95" length="11.63" shape="1042.74,620.79 1039.67,621.08 1037.47,622.28 1035.45,624.09 1032.89,626.21"/>
    </edge>
    <edge id=":1206481791_1" function="internal">
        <lane id=":1206481791_1_0" index="0" disallow="tram rail_urban rail rail_electric ship" speed="8.33" length="12.82" shape="1042.74,620.79 1029.96,619.71"/>
    </edge>
    <edge id=":1206481791_2" function="internal">
        <lane id=":1206481791_2_0" index="0" disallow="tram rail_urban rail rail_electric ship" speed="3.65" length="2.34" shape="1042.74,620.79 1041.60,619.91 1041.26,619.08"/>
    </edge>
    <edge id=":1206481791_9" function="internal">
        <lane id=":1206481791_9_0" index="0" speed="3.65" length="2.34" shape="1041.26,619.08 1041.72,618.31 1042.97,617.60"/>
    </edge>
    <edge id=":1206481791_3" function="internal">
        <lane id=":1206481791_3_0" index="0" disallow="tram rail_urban rail rail_electric ship" speed="8.33" length="12.77" shape="1030.25,616.52 1042.97,617.60"/>
    </edge>
    <edge id=":1206481791_4" function="internal">
        <lane id=":1206481791_4_0" index="0" allow="delivery bicycle pedestrian" speed="6.95" length="7.37" shape="1030.25,616.52 1035.81,617.61 1037.10,618.71"/>
    </edge>
    <edge id=":1206481791_5" function="internal">
        <lane id=":1206481791_5_0" index="0" disallow="tram rail_urban rail rail_electric ship" speed="3.65" length="2.34" shape="1030.25,616.52 1031.37,617.43 1031.70,618.26"/>
    </edge>
    <edge id=":1206481791_10" function="internal">
        <lane id=":1206481791_10_0" index="0" speed="6.95" length="10.04" shape="1037.10,618.71 1038.11,619.58 1037.14,622.45 1032.89,626.21"/>
    </edge>
    <edge id=":1206481791_11" function="internal">
        <lane id=":1206481791_11_0" index="0" speed="3.65" length="2.34" shape="1031.70,618.26 1031.23,619.02 1029.96,619.71"/>
    </edge>
    <edge id=":1206481791_6" function="internal">
        <lane id=":1206481791_6_0" index="0" disallow="tram rail_urban rail rail_electric ship" speed="4.71" length="7.00" shape="1031.03,623.61 1032.74,622.10 1033.13,620.94 1032.21,620.15 1029.96,619.71"/>
    </edge>
    <edge id=":1206481791_7" function="internal">
        <lane id=":1206481791_7_0" index="0" disallow="tram rail_urban rail rail_electric ship" speed="6.95" length="13.69" shape="1031.03,623.61 1033.91,621.39 1036.65,619.38 1039.57,617.98 1042.97,617.60"/>
    </edge>
    <edge id=":1206481791_8" function="internal">
        <lane id=":1206481791_8_0" index="0" allow="delivery bicycle pedestrian" speed="3.65" length="4.67" shape="1031.03,623.61 1032.47,623.56 1033.26,623.98 1033.40,624.86 1032.89,626.21"/>
    </edge>
    <edge id=":1206481798_0" function="internal">
        <lane id=":1206481798_0_0" index="0" allow="delivery bicycle pedestrian" speed="5.56" length="3.37" shape="1030.64,627.83 1029.82,628.38 1029.18,628.67 1028.49,628.76 1027.51,628.71"/>
    </edge>
    <edge id=":1206481798_1" function="internal">
        <lane id=":1206481798_1_0" index="0" allow="delivery bicycle pedestrian" speed="3.65" length="2.70" shape="1030.64,627.83 1029.20,627.88 1028.40,627.46 1028.35,627.10"/>
    </edge>
    <edge id=":1206481798_4" function="internal">
        <lane id=":1206481798_4_0" index="0" speed="3.65" length="1.97" shape="1028.35,627.10 1028.26,626.57 1028.77,625.23"/>
    </edge>
    <edge id=":1206481798_2" function="internal">
        <lane id=":1206481798_2_0" index="0" allow="delivery bicycle pedestrian" speed="4.33" length="1.12" shape="1027.73,625.52 1028.06,625.53 1028.29,625.51 1028.50,625.41 1028.77,625.23"/>
    </edge>
    <edge id=":1206481798_3" function="internal">
        <lane id=":1206481798_3_0" index="0" allow="delivery bicycle pedestrian" speed="3.65" length="2.02" shape="1027.73,625.52 1028.87,626.40 1029.09,626.94"/>
    </edge>
    <edge id=":1206481798_5" function="internal">
        <lane id=":1206481798_5_0" index="0" speed="3.65" length="2.65" shape="1029.09,626.94 1029.21,627.23 1028.76,628.00 1027.51,628.71"/>
    </edge>
    <edge id=":1206481808_0" function="internal">
        <lane id=":1206481808_0_0" index="0" disallow="tram rail_urban rail rail_electric ship" speed="6.95" length="9.33" shape="1000.10,622.92 998.09,620.19 996.32,618.21 994.82,616.98 993.57,616.50"/>
    </edge>
    <edge id=":1206481808_1" function="internal">
        <lane id=":1206481808_1_0" index="0" disallow="tram rail_urban rail rail_electric ship" speed="6.76" length="15.02" shape="1000.10,622.92 997.92,618.77 998.03,615.95 1000.43,614.46 1005.12,614.31"/>
    </edge>
    <edge id=":1206481808_2" function="internal">
        <lane id=":1206481808_2_0" index="0" allow="delivery bicycle pedestrian" speed="3.65" length="4.67" shape="1000.10,622.92 1000.08,621.48 1000.51,620.69 1001.40,620.57 1002.74,621.10"/>
    </edge>
    <edge id=":1206481808_3" function="internal">
        <lane id=":1206481808_3_0" index="0" allow="delivery bicycle pedestrian" speed="4.66" length="6.29" shape="1004.84,617.50 1002.87,617.56 1001.87,618.18 1001.82,619.36 1002.74,621.10"/>
    </edge>
    <edge id=":1206481808_4" function="internal">
        <lane id=":1206481808_4_0" index="0" disallow="tram rail_urban rail rail_electric ship" speed="8.33" length="11.31" shape="1004.84,617.50 993.57,616.50"/>
    </edge>
    <edge id=":1206481808_5" function="internal">
        <lane id=":1206481808_5_0" index="0" disallow="tram rail_urban rail rail_electric ship" speed="3.65" length="2.34" shape="1004.84,617.50 1003.71,616.59 1003.38,615.76"/>
    </edge>
    <edge id=":1206481808_9" function="internal">
        <lane id=":1206481808_9_0" index="0" speed="3.65" length="2.34" shape="1003.38,615.76 1003.85,615.00 1005.12,614.31"/>
    </edge>
    <edge id=":1206481808_6" function="internal">
        <lane id=":1206481808_6_0" index="0" disallow="tram rail_urban rail rail_electric ship" speed="8.33" length="11.31" shape="993.85,613.31 1005.12,614.31"/>
    </edge>
    <edge id=":1206481808_7" function="internal">
        <lane id=":1206481808_7_0" index="0" allow="delivery bicycle pedestrian" speed="6.95" length="4.37" shape="993.85,613.31 995.81,613.92 997.71,615.26"/>
    </edge>
    <edge id=":1206481808_8" function="internal">
        <lane id=":1206481808_8_0" index="0" disallow="tram rail_urban rail rail_electric ship" speed="3.65" length="2.34" shape="993.85,613.31 994.98,614.22 995.30,615.05"/>
    </edge>
    <edge id=":1206481808_10" function="internal">
        <lane id=":1206481808_10_0" index="0" speed="6.95" length="7.73" shape="997.71,615.26 997.94,615.43 1000.25,617.82 1002.74,621.10"/>
    </edge>
    <edge id=":1206481808_11" function="internal">
        <lane id=":1206481808_11_0" index="0" speed="3.65" length="2.34" shape="995.30,615.05 994.83,615.81 993.57,616.50"/>
    </edge>
    <edge id=":1252955304_0" function="internal">
        <lane id=":1252955304_0_0" index="0" allow="rail_urban" speed="27.78" length="0.10" shape="679.82,733.01 679.82,733.01"/>
    </edge>
    <edge id=":1252955374_0" function="internal">
        <lane id=":1252955374_0_0" index="0" allow="rail_urban" speed="27.78" length="0.22" shape="682.08,725.57 682.29,725.62"/>
    </edge>
    <edge id=":1348731995_0" function="internal">
        <lane id=":1348731995_0_0" index="0" allow="delivery bicycle pedestrian" speed="2.78" length="8.99" shape="417.42,735.38 414.96,735.47 413.12,736.33 411.91,737.96 411.33,740.36"/>
    </edge>
    <edge id=":1348731995_1" function="internal">
        <lane id=":1348731995_1_0" index="0" allow="delivery bicycle pedestrian" speed="2.78" length="11.32" shape="417.42,735.38 414.04,734.78 411.70,734.00 409.48,733.25 406.45,732.74"/>
    </edge>
    <edge id=":1348731995_2" function="internal">
        <lane id=":1348731995_2_0" index="0" disallow="tram rail_urban rail rail_electric ship" speed="2.78" length="9.02" shape="417.75,732.20 415.35,731.60 413.70,730.38 412.83,728.54 412.71,726.08"/>
    </edge>
    <edge id=":1419121873_0" function="internal">
        <lane id=":1419121873_0_0" index="0" disallow="tram rail_urban rail rail_electric ship" speed="8.33" length="8.75" shape="1180.88,687.17 1180.16,695.89"/>
    </edge>
    <edge id=":1419121873_1" function="internal">
        <lane id=":1419121873_1_0" index="0" allow="delivery bicycle pedestrian" speed="6.87" length="5.07" shape="1180.88,687.17 1180.25,689.87 1178.91,691.73"/>
    </edge>
    <edge id=":1419121873_2" function="internal">
        <lane id=":1419121873_2_0" index="0" disallow="tram rail_urban rail rail_electric ship" speed="3.65" length="2.34" shape="1180.88,687.17 1179.98,688.29 1179.15,688.62"/>
    </edge>
    <edge id=":1419121873_9" function="internal">
        <lane id=":1419121873_9_0" index="0" speed="6.87" length="5.07" shape="1178.91,691.73 1176.85,692.74 1174.08,692.91"/>
    </edge>
    <edge id=":1419121873_10" function="internal">
        <lane id=":1419121873_10_0" index="0" speed="3.65" length="2.34" shape="1179.15,688.62 1178.39,688.15 1177.69,686.89"/>
    </edge>
    <edge id=":1419121873_3" function="internal">
        <lane id=":1419121873_3_0" index="0" disallow="tram rail_urban rail rail_electric ship" speed="5.05" length="5.00" shape="1174.34,689.72 1175.71,689.64 1176.72,689.14 1177.38,688.22 1177.69,686.89"/>
    </edge>
    <edge id=":1419121873_4" function="internal">
        <lane id=":1419121873_4_0" index="0" disallow="tram rail_urban rail rail_electric ship" speed="6.72" length="9.66" shape="1174.34,689.72 1177.05,690.30 1178.93,691.52 1179.96,693.38 1180.16,695.89"/>
    </edge>
    <edge id=":1419121873_5" function="internal">
        <lane id=":1419121873_5_0" index="0" allow="delivery bicycle pedestrian" speed="3.65" length="4.67" shape="1174.34,689.72 1175.47,690.61 1175.80,691.44 1175.34,692.21 1174.08,692.91"/>
    </edge>
    <edge id=":1419121873_6" function="internal">
        <lane id=":1419121873_6_0" index="0" allow="delivery bicycle pedestrian" speed="4.84" length="4.52" shape="1176.97,695.64 1176.86,694.54 1176.34,693.72 1175.42,693.17 1174.08,692.91"/>
    </edge>
    <edge id=":1419121873_7" function="internal">
        <lane id=":1419121873_7_0" index="0" disallow="tram rail_urban rail rail_electric ship" speed="8.33" length="8.78" shape="1176.97,695.64 1177.69,686.89"/>
    </edge>
    <edge id=":1419121873_8" function="internal">
        <lane id=":1419121873_8_0" index="0" disallow="tram rail_urban rail rail_electric ship" speed="3.65" length="2.34" shape="1176.97,695.64 1177.86,694.51 1178.69,694.17"/>
    </edge>
    <edge id=":1419121873_11" function="internal">
        <lane id=":1419121873_11_0" index="0" speed="3.65" length="2.34" shape="1178.69,694.17 1179.46,694.63 1180.16,695.89"/>
    </edge>
    <edge id=":1446976097_0" function="internal">
        <lane id=":1446976097_0_0" index="0" disallow="tram rail_urban rail rail_electric ship" speed="8.33" length="0.21" shape="369.41,531.07 369.31,531.06"/>
        <lane id=":1446976097_0_1" index="1" disallow="tram rail_urban rail rail_electric ship" speed="8.33" length="0.21" shape="369.90,527.91 369.59,527.87"/>
    </edge>
    <edge id=":1446976097_2" function="internal">
        <lane id=":1446976097_2_0" index="0" disallow="tram rail_urban rail rail_electric ship" speed="3.65" length="2.34" shape="369.90,527.91 368.84,526.94 368.56,526.09"/>
    </edge>
    <edge id=":1446976097_6" function="internal">
        <lane id=":1446976097_6_0" index="0" speed="3.65" length="2.34" shape="368.56,526.09 369.08,525.36 370.39,524.75"/>
    </edge>
    <edge id=":1446976097_3" function="internal">
        <lane id=":1446976097_3_0" index="0" disallow="tram rail_urban rail rail_electric ship" speed="8.33" length="0.63" shape="370.14,521.50 370.87,521.59"/>
        <lane id=":1446976097_3_1" index="1" disallow="tram rail_urban rail rail_electric ship" speed="8.33" length="0.63" shape="369.86,524.69 370.39,524.75"/>
    </edge>
    <edge id=":1446976097_5" function="internal">
        <lane id=":1446976097_5_0" index="0" disallow="tram rail_urban rail rail_electric ship" speed="3.65" length="2.34" shape="369.86,524.69 370.99,525.59 371.32,526.42"/>
    </edge>
    <edge id=":1446976097_7" function="internal">
        <lane id=":1446976097_7_0" index="0" speed="3.65" length="2.34" shape="371.32,526.42 370.85,527.18 369.59,527.87"/>
    </edge>
    <edge id=":1812234357_0" function="internal">
        <lane id=":1812234357_0_0" index="0" disallow="tram rail_urban rail rail_electric ship" speed="13.89" length="0.30" shape="592.61,429.74 592.52,430.03"/>
        <lane id=":1812234357_0_1" index="1" disallow="tram rail_urban rail rail_electric ship" speed="13.89" length="0.30" shape="589.54,428.84 589.46,429.12"/>
    </edge>
    <edge id=":1812234357_2" function="internal">
        <lane id=":1812234357_2_0" index="0" disallow="tram rail_urban rail rail_electric ship" speed="3.65" length="2.34" shape="589.54,428.84 588.43,429.76 587.55,429.92"/>
    </edge>
    <edge id=":1812234357_5" function="internal">
        <lane id=":1812234357_5_0" index="0" speed="3.65" length="2.34" shape="587.55,429.92 586.90,429.30 586.47,427.93"/>
    </edge>
    <edge id=":1812234357_3" function="internal">
        <lane id=":1812234357_3_0" index="0" disallow="tram rail_urban rail rail_electric ship" speed="13.89" length="0.30" shape="586.39,428.21 586.47,427.93"/>
    </edge>
    <edge id=":1812234357_4" function="internal">
        <lane id=":1812234357_4_0" index="0" disallow="tram rail_urban rail rail_electric ship" speed="3.65" length="2.34" shape="586.39,428.21 587.50,427.29 588.38,427.13"/>
    </edge>
    <edge id=":1812234357_6" function="internal">
        <lane id=":1812234357_6_0" index="0" speed="3.65" length="2.34" shape="588.38,427.13 589.03,427.74 589.46,429.12"/>
    </edge>
    <edge id=":1831594525_0" function="internal">
        <lane id=":1831594525_0_0" index="0" disallow="tram rail_urban rail rail_electric ship" speed="8.33" length="0.26" shape="471.87,558.73 471.63,558.66"/>
        <lane id=":1831594525_0_1" index="1" disallow="tram rail_urban rail rail_electric ship" speed="8.33" length="0.26" shape="472.77,555.66 472.50,555.58"/>
    </edge>
    <edge id=":1831594525_2" function="internal">
        <lane id=":1831594525_2_0" index="0" disallow="tram rail_urban rail rail_electric ship" speed="3.65" length="2.34" shape="472.77,555.66 471.85,554.55 471.69,553.67"/>
    </edge>
    <edge id=":1831594525_6" function="internal">
        <lane id=":1831594525_6_0" index="0" speed="3.65" length="2.34" shape="471.69,553.67 472.30,553.02 473.68,552.59"/>
    </edge>
    <edge id=":1831594525_3" function="internal">
        <lane id=":1831594525_3_0" index="0" disallow="tram rail_urban rail rail_electric ship" speed="8.33" length="0.33" shape="474.26,549.43 474.58,549.52"/>
        <lane id=":1831594525_3_1" index="1" disallow="tram rail_urban rail rail_electric ship" speed="8.33" length="0.33" shape="473.38,552.50 473.68,552.59"/>
    </edge>
    <edge id=":1831594525_5" function="internal">
        <lane id=":1831594525_5_0" index="0" disallow="tram rail_urban rail rail_electric ship" speed="3.65" length="2.34" shape="473.38,552.50 474.31,553.60 474.48,554.48"/>
    </edge>
    <edge id=":1831594525_7" function="internal">
        <lane id=":1831594525_7_0" index="0" speed="3.65" length="2.34" shape="474.48,554.48 473.88,555.14 472.50,555.58"/>
    </edge>
    <edge id=":20246257_0" function="internal">
        <lane id=":20246257_0_0" index="0" disallow="tram rail_urban rail rail_electric ship" speed="6.73" length="9.53" shape="1065.49,622.35 1062.83,622.54 1060.86,623.49 1059.57,625.20 1058.96,627.66"/>
    </edge>
    <edge id=":20246257_1" function="internal">
        <lane id=":20246257_1_0" index="0" disallow="tram rail_urban rail rail_electric ship" speed="8.33" length="15.04" shape="1065.49,622.35 1050.48,621.34"/>
    </edge>
    <edge id=":20246257_2" function="internal">
        <lane id=":20246257_2_0" index="0" disallow="tram rail_urban rail rail_electric ship" speed="8.37" length="14.79" shape="1065.49,622.35 1061.53,621.55 1058.69,619.69 1056.97,616.80 1056.38,612.85"/>
    </edge>
    <edge id=":20246257_3" function="internal">
        <lane id=":20246257_3_0" index="0" disallow="tram rail_urban rail rail_electric ship" speed="3.65" length="4.67" shape="1065.49,622.35 1064.34,621.48 1063.99,620.66 1064.44,619.88 1065.69,619.16"/>
    </edge>
    <edge id=":20246257_4" function="internal">
        <lane id=":20246257_4_0" index="0" disallow="tram rail_urban rail rail_electric ship" speed="6.33" length="9.21" shape="1060.95,612.89 1060.86,615.49 1061.62,617.41 1063.23,618.63 1065.69,619.16"/>
    </edge>
    <edge id=":20246257_5" function="internal">
        <lane id=":20246257_5_0" index="0" disallow="tram rail_urban rail rail_electric ship" speed="13.89" length="14.91" shape="1060.95,612.89 1058.96,627.66"/>
    </edge>
    <edge id=":20246257_6" function="internal">
        <lane id=":20246257_6_0" index="0" disallow="tram rail_urban rail rail_electric ship" speed="8.54" length="7.03" shape="1060.95,612.89 1059.70,616.82 1057.89,619.10"/>
    </edge>
    <edge id=":20246257_7" function="internal">
        <lane id=":20246257_7_0" index="0" disallow="tram rail_urban rail rail_electric ship" speed="4.24" length="4.10" shape="1060.95,612.89 1059.79,614.59 1058.64,615.16 1057.97,614.81"/>
    </edge>
    <edge id=":20246257_16" function="internal">
        <lane id=":20246257_16_0" index="0" speed="8.54" length="7.99" shape="1057.89,619.10 1057.54,619.55 1054.46,621.05 1050.48,621.34"/>
    </edge>
    <edge id=":20246257_17" function="internal">
        <lane id=":20246257_17_0" index="0" speed="4.24" length="2.58" shape="1057.97,614.81 1057.51,614.58 1056.38,612.85"/>
    </edge>
    <edge id=":20246257_8" function="internal">
        <lane id=":20246257_8_0" index="0" disallow="tram rail_urban rail rail_electric ship" speed="6.33" length="9.02" shape="1050.71,618.15 1053.20,617.97 1054.98,617.03 1056.04,615.32 1056.38,612.85"/>
    </edge>
    <edge id=":20246257_9" function="internal">
        <lane id=":20246257_9_0" index="0" disallow="tram rail_urban rail rail_electric ship" speed="8.33" length="15.02" shape="1050.71,618.15 1065.69,619.16"/>
    </edge>
    <edge id=":20246257_10" function="internal">
        <lane id=":20246257_10_0" index="0" disallow="tram rail_urban rail rail_electric ship" speed="8.01" length="14.43" shape="1050.71,618.15 1054.62,618.99 1057.31,620.85 1058.75,623.74 1058.96,627.66"/>
    </edge>
    <edge id=":20246257_11" function="internal">
        <lane id=":20246257_11_0" index="0" disallow="tram rail_urban rail rail_electric ship" speed="3.65" length="4.67" shape="1050.71,618.15 1051.85,619.04 1052.19,619.86 1051.73,620.63 1050.48,621.34"/>
    </edge>
    <edge id=":20246257_12" function="internal">
        <lane id=":20246257_12_0" index="0" disallow="tram rail_urban rail rail_electric ship" speed="6.51" length="9.19" shape="1055.78,627.37 1055.64,624.89 1054.71,623.06 1052.99,621.88 1050.48,621.34"/>
    </edge>
    <edge id=":20246257_13" function="internal">
        <lane id=":20246257_13_0" index="0" disallow="tram rail_urban rail rail_electric ship" speed="13.89" length="14.53" shape="1055.78,627.37 1056.07,623.70 1056.26,620.12 1056.36,616.53 1056.38,612.85"/>
    </edge>
    <edge id=":20246257_14" function="internal">
        <lane id=":20246257_14_0" index="0" disallow="tram rail_urban rail rail_electric ship" speed="8.19" length="6.37" shape="1055.78,627.37 1056.70,623.56 1058.17,621.59"/>
    </edge>
    <edge id=":20246257_15" function="internal">
        <lane id=":20246257_15_0" index="0" disallow="tram rail_urban rail rail_electric ship" speed="3.65" length="2.34" shape="1055.78,627.37 1056.68,626.25 1057.52,625.92"/>
    </edge>
    <edge id=":20246257_18" function="internal">
        <lane id=":20246257_18_0" index="0" speed="8.19" length="8.21" shape="1058.17,621.59 1058.66,620.92 1061.66,619.46 1065.69,619.16"/>
    </edge>
    <edge id=":20246257_19" function="internal">
        <lane id=":20246257_19_0" index="0" speed="3.65" length="2.34" shape="1057.52,625.92 1058.28,626.39 1058.96,627.66"/>
    </edge>
    <edge id=":2045820585_0" function="internal">
        <lane id=":2045820585_0_0" index="0" disallow="tram rail_urban rail rail_electric ship" speed="5.05" length="5.03" shape="1057.03,683.37 1055.65,683.45 1054.63,683.96 1053.97,684.88 1053.67,686.22"/>
    </edge>
    <edge id=":2045820585_1" function="internal">
        <lane id=":2045820585_1_0" index="0" disallow="tram rail_urban rail rail_electric ship" speed="6.85" length="10.23" shape="1057.03,683.37 1054.29,682.76 1052.41,681.41 1051.40,679.34 1051.26,676.53"/>
    </edge>
    <edge id=":2045820585_2" function="internal">
        <lane id=":2045820585_2_0" index="0" allow="delivery bicycle pedestrian" speed="3.65" length="4.67" shape="1057.03,683.37 1055.90,682.48 1055.56,681.65 1056.02,680.88 1057.28,680.18"/>
    </edge>
    <edge id=":2045820585_3" function="internal">
        <lane id=":2045820585_3_0" index="0" allow="delivery bicycle pedestrian" speed="5.02" length="5.02" shape="1054.45,676.83 1054.52,678.20 1055.01,679.22 1055.93,679.88 1057.28,680.18"/>
    </edge>
    <edge id=":2045820585_4" function="internal">
        <lane id=":2045820585_4_0" index="0" disallow="tram rail_urban rail rail_electric ship" speed="13.89" length="9.43" shape="1054.45,676.83 1053.67,686.22"/>
    </edge>
    <edge id=":2045820585_5" function="internal">
        <lane id=":2045820585_5_0" index="0" disallow="tram rail_urban rail rail_electric ship" speed="3.65" length="2.34" shape="1054.45,676.83 1053.54,677.95 1052.71,678.27"/>
    </edge>
    <edge id=":2045820585_9" function="internal">
        <lane id=":2045820585_9_0" index="0" speed="3.65" length="2.34" shape="1052.71,678.27 1051.95,677.80 1051.26,676.53"/>
    </edge>
    <edge id=":2045820585_6" function="internal">
        <lane id=":2045820585_6_0" index="0" disallow="tram rail_urban rail rail_electric ship" speed="13.89" length="9.49" shape="1050.48,685.99 1051.26,676.53"/>
    </edge>
    <edge id=":2045820585_7" function="internal">
        <lane id=":2045820585_7_0" index="0" allow="delivery bicycle pedestrian" speed="6.87" length="5.09" shape="1050.48,685.99 1051.08,683.26 1052.41,681.39"/>
    </edge>
    <edge id=":2045820585_8" function="internal">
        <lane id=":2045820585_8_0" index="0" disallow="tram rail_urban rail rail_electric ship" speed="3.65" length="2.34" shape="1050.48,685.99 1051.37,684.85 1052.19,684.51"/>
    </edge>
    <edge id=":2045820585_10" function="internal">
        <lane id=":2045820585_10_0" index="0" speed="6.87" length="5.11" shape="1052.41,681.39 1054.48,680.36 1057.28,680.18"/>
    </edge>
    <edge id=":2045820585_11" function="internal">
        <lane id=":2045820585_11_0" index="0" speed="3.65" length="2.34" shape="1052.19,684.51 1052.96,684.97 1053.67,686.22"/>
    </edge>
    <edge id=":2054971477_0" function="internal">
        <lane id=":2054971477_0_0" index="0" allow="delivery bicycle pedestrian" speed="3.65" length="4.67" shape="322.67,261.67 323.56,260.54 324.39,260.20 325.15,260.66 325.86,261.92"/>
    </edge>
    <edge id=":2054971478_0" function="internal">
        <lane id=":2054971478_0_0" index="0" allow="delivery bicycle pedestrian" speed="3.65" length="4.67" shape="366.92,265.09 367.81,263.95 368.64,263.61 369.41,264.07 370.12,265.33"/>
    </edge>
    <edge id=":2054971480_0" function="internal">
        <lane id=":2054971480_0_0" index="0" allow="bicycle pedestrian" speed="2.78" length="9.40" width="2.00" shape="323.84,329.95 314.46,329.34"/>
    </edge>
    <edge id=":2054971480_1" function="internal">
        <lane id=":2054971480_1_0" index="0" allow="delivery bicycle pedestrian" speed="5.56" length="7.39" shape="323.84,329.95 321.10,329.61 319.17,329.01 318.05,328.14 317.74,327.00"/>
    </edge>
    <edge id=":2054971480_2" function="internal">
        <lane id=":2054971480_2_0" index="0" allow="bicycle pedestrian" speed="5.56" length="7.38" width="2.00" shape="320.93,327.24 320.45,328.31 319.22,329.02 317.22,329.36 314.46,329.34"/>
    </edge>
    <edge id=":2054971480_3" function="internal">
        <lane id=":2054971480_3_0" index="0" allow="delivery bicycle pedestrian" speed="3.65" length="4.67" shape="320.93,327.24 320.04,328.38 319.21,328.72 318.45,328.26 317.74,327.00"/>
    </edge>
    <edge id=":2054971481_0" function="internal">
        <lane id=":2054971481_0_0" index="0" allow="bicycle pedestrian" speed="2.78" length="9.40" width="2.00" shape="368.13,332.85 358.75,332.24"/>
    </edge>
    <edge id=":2054971481_1" function="internal">