<?xml version="1.0" encoding="UTF-8"?>

<!-- generated on Sat Dec  8 18:25:58 2018 by SUMO netconvert Version 0.30.0
<?xml version="1.0" encoding="UTF-8"?>

<configuration xmlns:xsi="http://www.w3.org/2001/XMLSchema-instance" xsi:noNamespaceSchemaLocation="http://sumo.dlr.de/xsd/netconvertConfiguration.xsd">

    <input>
        <type-files value="/home/jordan/Downloads/sumo-0.30.0/data/typemap/osmNetconvert.typ.xml"/>
        <osm-files value="osm_bbox.osm.xml"/>
    </input>

    <output>
        <output-file value="/home/jordan/Downloads/sumo-0.30.0/tools/2018-12-08-18-25-54/osm.net.xml"/>
        <output.street-names value="true"/>
        <output.original-names value="true"/>
    </output>

    <projection>
        <proj.utm value="true"/>
    </projection>

    <tls_building>
        <tls.discard-simple value="true"/>
        <tls.join value="true"/>
        <tls.guess-signals value="true"/>
    </tls_building>

    <ramp_guessing>
        <ramps.guess value="true"/>
    </ramp_guessing>

    <processing>
        <geometry.remove value="true"/>
        <roundabouts.guess value="true"/>
        <junctions.join value="true"/>
        <junctions.corner-detail value="5"/>
    </processing>

    <report>
        <verbose value="true"/>
    </report>

</configuration>
-->

<net version="0.27" junctionCornerDetail="5" xmlns:xsi="http://www.w3.org/2001/XMLSchema-instance" xsi:noNamespaceSchemaLocation="http://sumo.dlr.de/xsd/net_file.xsd">

    <location netOffset="-390616.10,-5819313.79" convBoundary="0.00,0.00,2005.61,2056.56" origBoundary="13.372213,52.513351,13.417649,52.531772" projParameter="+proj=utm +zone=33 +ellps=WGS84 +datum=WGS84 +units=m +no_defs"/>

    <type id="highway.bridleway" priority="1" numLanes="1" speed="2.78" allow="pedestrian" oneway="1" width="2.00"/>
    <type id="highway.bus_guideway" priority="1" numLanes="1" speed="8.33" allow="bus" oneway="1"/>
    <type id="highway.cycleway" priority="1" numLanes="1" speed="5.56" allow="bicycle" oneway="0" width="1.00"/>
    <type id="highway.footway" priority="1" numLanes="1" speed="2.78" allow="pedestrian" oneway="1" width="2.00"/>
    <type id="highway.ford" priority="1" numLanes="1" speed="2.78" allow="army" oneway="0"/>
    <type id="highway.living_street" priority="3" numLanes="1" speed="2.78" disallow="tram rail_urban rail rail_electric ship" oneway="0"/>
    <type id="highway.motorway" priority="13" numLanes="2" speed="44.44" allow="private emergency authority army vip passenger hov taxi bus coach delivery truck trailer motorcycle evehicle custom1 custom2" oneway="1"/>
    <type id="highway.motorway_link" priority="12" numLanes="1" speed="22.22" allow="private emergency authority army vip passenger hov taxi bus coach delivery truck trailer motorcycle evehicle custom1 custom2" oneway="1"/>
    <type id="highway.path" priority="1" numLanes="1" speed="2.78" allow="bicycle pedestrian" oneway="1" width="2.00"/>
    <type id="highway.pedestrian" priority="1" numLanes="1" speed="2.78" allow="pedestrian" oneway="1" width="2.00"/>
    <type id="highway.primary" priority="9" numLanes="2" speed="27.78" disallow="tram rail_urban rail rail_electric ship" oneway="0"/>
    <type id="highway.primary_link" priority="8" numLanes="1" speed="22.22" disallow="tram rail_urban rail rail_electric ship" oneway="0"/>
    <type id="highway.raceway" priority="14" numLanes="2" speed="83.33" allow="vip" oneway="0"/>
    <type id="highway.residential" priority="4" numLanes="1" speed="13.89" disallow="tram rail_urban rail rail_electric ship" oneway="0"/>
    <type id="highway.secondary" priority="7" numLanes="2" speed="27.78" disallow="tram rail_urban rail rail_electric ship" oneway="0"/>
    <type id="highway.secondary_link" priority="6" numLanes="1" speed="22.22" disallow="tram rail_urban rail rail_electric ship" oneway="0"/>
    <type id="highway.service" priority="2" numLanes="1" speed="5.56" allow="delivery bicycle pedestrian" oneway="0"/>
    <type id="highway.services" priority="1" numLanes="1" speed="8.33" disallow="tram rail_urban rail rail_electric ship" oneway="0"/>
    <type id="highway.stairs" priority="1" numLanes="1" speed="1.39" allow="pedestrian" oneway="1" width="2.00"/>
    <type id="highway.step" priority="1" numLanes="1" speed="1.39" allow="pedestrian" oneway="1" width="2.00"/>
    <type id="highway.steps" priority="1" numLanes="1" speed="1.39" allow="pedestrian" oneway="1" width="2.00"/>
    <type id="highway.tertiary" priority="6" numLanes="1" speed="22.22" disallow="tram rail_urban rail rail_electric ship" oneway="0"/>
    <type id="highway.tertiary_link" priority="5" numLanes="1" speed="22.22" disallow="tram rail_urban rail rail_electric ship" oneway="0"/>
    <type id="highway.track" priority="1" numLanes="1" speed="5.56" disallow="tram rail_urban rail rail_electric ship" oneway="0"/>
    <type id="highway.trunk" priority="11" numLanes="2" speed="27.78" disallow="tram rail_urban rail rail_electric bicycle pedestrian ship" oneway="0"/>
    <type id="highway.trunk_link" priority="10" numLanes="1" speed="22.22" disallow="tram rail_urban rail rail_electric bicycle pedestrian ship" oneway="0"/>
    <type id="highway.unclassified" priority="5" numLanes="1" speed="13.89" disallow="tram rail_urban rail rail_electric ship" oneway="0"/>
    <type id="highway.unsurfaced" priority="1" numLanes="1" speed="8.33" disallow="tram rail_urban rail rail_electric ship" oneway="0"/>
    <type id="railway.light_rail" priority="15" numLanes="1" speed="27.78" allow="rail_urban" oneway="1"/>
    <type id="railway.preserved" priority="15" numLanes="1" speed="27.78" allow="rail" oneway="1"/>
    <type id="railway.rail" priority="15" numLanes="1" speed="83.33" allow="rail rail_electric" oneway="1"/>
    <type id="railway.subway" priority="15" numLanes="1" speed="27.78" allow="rail_urban" oneway="1"/>
    <type id="railway.tram" priority="15" numLanes="1" speed="13.89" allow="tram" oneway="1"/>

    <edge id=":1075544310_0" function="internal">
        <lane id=":1075544310_0_0" index="0" disallow="tram rail_urban rail rail_electric ship" speed="8.33" length="4.82" shape="438.52,1070.66 438.90,1069.23 439.55,1068.57 440.47,1068.70 441.64,1069.61"/>
    </edge>
    <edge id=":1157325170_0" function="internal">
        <lane id=":1157325170_0_0" index="0" allow="tram" speed="13.89" length="5.44" shape="1080.01,849.70 1083.27,845.34"/>
    </edge>
    <edge id=":1157325174_0" function="internal">
        <lane id=":1157325174_0_0" index="0" disallow="tram rail_urban rail rail_electric ship" speed="13.89" length="4.99" shape="1094.15,852.51 1091.11,856.44"/>
        <lane id=":1157325174_0_1" index="1" disallow="tram rail_urban rail rail_electric ship" speed="13.89" length="4.99" shape="1091.55,850.47 1088.49,854.43"/>
    </edge>
    <edge id=":1208647794_0" function="internal">
        <lane id=":1208647794_0_0" index="0" disallow="tram rail_urban rail rail_electric ship" speed="8.33" length="5.31" shape="567.36,741.77 566.02,742.18 564.92,742.84 564.05,743.77 563.42,744.96"/>
    </edge>
    <edge id=":1208647794_1" function="internal">
        <lane id=":1208647794_1_0" index="0" disallow="tram rail_urban rail rail_electric ship" speed="8.33" length="4.82" shape="567.36,741.77 565.99,741.19 565.43,740.45 565.68,739.57 566.75,738.53"/>
    </edge>
    <edge id=":1208647794_2" function="internal">
        <lane id=":1208647794_2_0" index="0" disallow="tram rail_urban rail rail_electric ship" speed="8.33" length="4.91" shape="563.04,736.20 563.56,737.42 564.35,738.22 565.42,738.59 566.75,738.53"/>
    </edge>
    <edge id=":1208647794_3" function="internal">
        <lane id=":1208647794_3_0" index="0" disallow="tram rail_urban rail rail_electric ship" speed="8.33" length="9.05" shape="563.04,736.20 563.80,738.78 564.25,740.64 564.19,742.46 563.42,744.96"/>
    </edge>
    <edge id=":1217651538_0" function="internal">
        <lane id=":1217651538_0_0" index="0" allow="delivery bicycle pedestrian" speed="5.56" length="4.82" shape="453.28,883.17 452.78,881.77 452.95,880.86 453.77,880.45 455.26,880.53"/>
    </edge>
    <edge id=":1275468904_0" function="internal">
        <lane id=":1275468904_0_0" index="0" disallow="tram rail_urban rail rail_electric ship" speed="13.89" length="4.95" shape="1304.91,1100.39 1302.96,1095.84"/>
    </edge>
    <edge id=":1275468904_1" function="internal">
        <lane id=":1275468904_1_0" index="0" disallow="tram rail_urban rail rail_electric ship" speed="13.89" length="2.41" shape="1304.91,1100.39 1305.19,1098.93 1305.79,1098.23"/>
    </edge>
    <edge id=":1275468904_4" function="internal">
        <lane id=":1275468904_4_0" index="0" speed="13.89" length="2.41" shape="1305.79,1098.23 1306.71,1098.29 1307.95,1099.11"/>
    </edge>
    <edge id=":1275468904_2" function="internal">
        <lane id=":1275468904_2_0" index="0" disallow="tram rail_urban rail rail_electric ship" speed="13.89" length="4.99" shape="1305.99,1094.53 1307.95,1099.11"/>
    </edge>
    <edge id=":1275468904_3" function="internal">
        <lane id=":1275468904_3_0" index="0" disallow="tram rail_urban rail rail_electric ship" speed="13.89" length="2.41" shape="1305.99,1094.53 1305.72,1095.99 1305.13,1096.70"/>
    </edge>
    <edge id=":1275468904_5" function="internal">
        <lane id=":1275468904_5_0" index="0" speed="13.89" length="2.41" shape="1305.13,1096.70 1304.21,1096.64 1302.96,1095.84"/>
    </edge>
    <edge id=":1275477851_0" function="internal">
        <lane id=":1275477851_0_0" index="0" allow="delivery bicycle pedestrian" speed="8.33" length="4.82" shape="1652.60,1331.16 1652.30,1332.62 1651.69,1333.31 1650.77,1333.24 1649.54,1332.40"/>
    </edge>
    <edge id=":1275477853_0" function="internal">
        <lane id=":1275477853_0_0" index="0" allow="delivery bicycle pedestrian" speed="8.33" length="4.82" shape="1548.99,1247.75 1547.52,1247.54 1546.79,1246.97 1546.80,1246.05 1547.56,1244.77"/>
    </edge>
    <edge id=":1457124764_0" function="internal">
        <lane id=":1457124764_0_0" index="0" allow="delivery bicycle pedestrian" speed="5.56" length="4.82" shape="565.76,687.14 566.59,688.37 566.66,689.29 565.97,689.90 564.51,690.20"/>
    </edge>
    <edge id=":1472911017_0" function="internal">
        <lane id=":1472911017_0_0" index="0" disallow="tram rail_urban rail rail_electric ship" speed="8.33" length="4.82" shape="886.45,576.92 887.80,576.29 888.72,576.37 889.21,577.15 889.27,578.64"/>
    </edge>
    <edge id=":1473258656_0" function="internal">
        <lane id=":1473258656_0_0" index="0" allow="delivery bicycle pedestrian" speed="4.17" length="5.47" shape="739.50,757.25 738.27,756.73 737.07,756.77 735.89,757.36 734.74,758.50"/>
    </edge>
    <edge id=":1473258656_1" function="internal">
        <lane id=":1473258656_1_0" index="0" disallow="tram rail_urban rail rail_electric ship" speed="2.78" length="9.54" shape="739.50,757.25 731.47,752.09"/>
    </edge>
    <edge id=":1473258656_2" function="internal">
        <lane id=":1473258656_2_0" index="0" disallow="tram rail_urban rail rail_electric ship" speed="2.78" length="2.41" shape="739.50,757.25 738.90,755.89 739.00,754.97"/>
    </edge>
    <edge id=":1473258656_9" function="internal">
        <lane id=":1473258656_9_0" index="0" speed="2.78" length="2.41" shape="739.00,754.97 739.79,754.50 741.28,754.47"/>
    </edge>
    <edge id=":1473258656_3" function="internal">
        <lane id=":1473258656_3_0" index="0" disallow="tram rail_urban rail rail_electric ship" speed="2.78" length="9.54" shape="733.25,749.32 741.28,754.47"/>
    </edge>
    <edge id=":1473258656_4" function="internal">
        <lane id=":1473258656_4_0" index="0" allow="delivery bicycle pedestrian" speed="4.17" length="5.44" shape="733.25,749.32 735.54,751.30 736.55,753.49"/>
    </edge>
    <edge id=":1473258656_5" function="internal">
        <lane id=":1473258656_5_0" index="0" disallow="tram rail_urban rail rail_electric ship" speed="2.78" length="2.41" shape="733.25,749.32 733.85,750.68 733.75,751.60"/>
    </edge>
    <edge id=":1473258656_10" function="internal">
        <lane id=":1473258656_10_0" index="0" speed="4.17" length="5.44" shape="736.55,753.49 736.29,755.89 734.74,758.50"/>
    </edge>
    <edge id=":1473258656_11" function="internal">
        <lane id=":1473258656_11_0" index="0" speed="2.78" length="2.41" shape="733.75,751.60 732.96,752.07 731.47,752.09"/>
    </edge>
    <edge id=":1473258656_6" function="internal">
        <lane id=":1473258656_6_0" index="0" disallow="tram rail_urban rail rail_electric ship" speed="4.17" length="5.13" shape="732.17,756.42 732.90,755.19 733.03,754.06 732.55,753.03 731.47,752.09"/>
    </edge>
    <edge id=":1473258656_7" function="internal">
        <lane id=":1473258656_7_0" index="0" disallow="tram rail_urban rail rail_electric ship" speed="4.17" length="10.38" shape="732.17,756.42 734.30,754.38 736.52,753.37 738.85,753.40 741.28,754.47"/>
    </edge>
    <edge id=":1473258656_8" function="internal">
        <lane id=":1473258656_8_0" index="0" allow="delivery bicycle pedestrian" speed="5.56" length="4.82" shape="732.17,756.42 733.59,755.98 734.49,756.18 734.87,757.02 734.74,758.50"/>
    </edge>
    <edge id=":1473258657_0" function="internal">
        <lane id=":1473258657_0_0" index="0" allow="bicycle pedestrian" speed="2.78" length="5.01" width="2.00" shape="720.99,755.96 725.16,758.72"/>
    </edge>
    <edge id=":1473258657_1" function="internal">
        <lane id=":1473258657_1_0" index="0" allow="bicycle pedestrian" speed="2.78" length="4.12" width="2.00" shape="721.56,759.42 722.38,758.61 723.25,758.23 724.18,758.26 725.16,758.72"/>
    </edge>
    <edge id=":1473258660_0" function="internal">
        <lane id=":1473258660_0_0" index="0" allow="bicycle pedestrian" speed="4.17" length="4.58" width="2.00" shape="732.96,760.76 732.44,761.78 732.45,762.76 732.99,763.69 734.05,764.58"/>
    </edge>
    <edge id=":1473258660_1" function="internal">
        <lane id=":1473258660_1_0" index="0" allow="delivery bicycle pedestrian" speed="5.56" length="5.40" shape="732.96,760.76 729.72,765.08"/>
    </edge>
    <edge id=":1473258660_2" function="internal">
        <lane id=":1473258660_2_0" index="0" allow="delivery bicycle pedestrian" speed="5.56" length="2.41" shape="732.96,760.76 731.56,761.26 730.65,761.09"/>
    </edge>
    <edge id=":1473258660_9" function="internal">
        <lane id=":1473258660_9_0" index="0" speed="5.56" length="2.41" shape="730.65,761.09 730.24,760.27 730.32,758.78"/>
    </edge>
    <edge id=":1473258660_3" function="internal">
        <lane id=":1473258660_3_0" index="0" allow="delivery bicycle pedestrian" speed="4.17" length="4.88" shape="726.00,759.28 727.26,759.90 728.40,760.03 729.42,759.65 730.32,758.78"/>
    </edge>
    <edge id=":1473258660_4" function="internal">
        <lane id=":1473258660_4_0" index="0" allow="bicycle pedestrian" speed="2.78" length="9.63" width="2.00" shape="726.00,759.28 734.05,764.58"/>
    </edge>
    <edge id=":1473258660_5" function="internal">
        <lane id=":1473258660_5_0" index="0" allow="delivery bicycle pedestrian" speed="4.17" length="7.60" shape="726.00,759.28 728.26,760.98 729.63,762.51 730.12,763.88 729.72,765.08"/>
    </edge>
    <edge id=":1473258660_6" function="internal">
        <lane id=":1473258660_6_0" index="0" allow="delivery bicycle pedestrian" speed="5.56" length="5.39" shape="727.08,763.10 730.32,758.78"/>
    </edge>
    <edge id=":1473258660_7" function="internal">
        <lane id=":1473258660_7_0" index="0" allow="bicycle pedestrian" speed="4.17" length="2.73" width="2.00" shape="727.08,763.10 728.10,762.41 729.60,762.43"/>
    </edge>
    <edge id=":1473258660_8" function="internal">
        <lane id=":1473258660_8_0" index="0" allow="delivery bicycle pedestrian" speed="5.56" length="2.41" shape="727.08,763.10 728.49,762.60 729.39,762.77"/>
    </edge>
    <edge id=":1473258660_10" function="internal">
        <lane id=":1473258660_10_0" index="0" speed="4.17" length="4.95" width="2.00" shape="729.60,762.43 731.58,763.15 734.05,764.58"/>
    </edge>
    <edge id=":1473258660_11" function="internal">
        <lane id=":1473258660_11_0" index="0" speed="5.56" length="2.41" shape="729.39,762.77 729.81,763.59 729.72,765.08"/>
    </edge>
    <edge id=":1473258664_0" function="internal">
        <lane id=":1473258664_0_0" index="0" allow="delivery bicycle pedestrian" speed="4.17" length="10.17" shape="791.43,786.60 793.54,788.41 794.58,790.47 794.57,792.77 793.50,795.33"/>
    </edge>
    <edge id=":1473258664_1" function="internal">
        <lane id=":1473258664_1_0" index="0" disallow="tram rail_urban rail rail_electric ship" speed="2.78" length="4.82" shape="791.43,786.60 792.03,787.96 791.93,788.88 791.14,789.35 789.66,789.38"/>
    </edge>
    <edge id=":1473258664_2" function="internal">
        <lane id=":1473258664_2_0" index="0" disallow="tram rail_urban rail rail_electric ship" speed="4.17" length="4.96" shape="790.67,793.65 791.19,792.40 791.20,791.27 790.68,790.26 789.66,789.38"/>
    </edge>
    <edge id=":1473258664_3" function="internal">
        <lane id=":1473258664_3_0" index="0" allow="delivery bicycle pedestrian" speed="5.56" length="4.82" shape="790.67,793.65 792.01,793.00 792.93,793.07 793.43,793.85 793.50,795.33"/>
    </edge>
    <edge id=":1473258672_0" function="internal">
        <lane id=":1473258672_0_0" index="0" allow="delivery bicycle pedestrian" speed="5.56" length="10.29" shape="706.95,800.89 704.96,798.89 704.08,796.74 704.31,794.42 705.65,791.94"/>
    </edge>
    <edge id=":1473258672_1" function="internal">
        <lane id=":1473258672_1_0" index="0" allow="delivery bicycle pedestrian" speed="5.56" length="4.82" shape="706.95,800.89 706.45,799.48 706.62,798.58 707.45,798.16 708.93,798.25"/>
    </edge>
    <edge id=":1473258672_2" function="internal">
        <lane id=":1473258672_2_0" index="0" allow="delivery bicycle pedestrian" speed="5.56" length="4.99" shape="708.30,793.91 707.65,795.11 707.54,796.24 707.96,797.28 708.93,798.25"/>
    </edge>
    <edge id=":1473258672_3" function="internal">
        <lane id=":1473258672_3_0" index="0" allow="delivery bicycle pedestrian" speed="5.56" length="4.82" shape="708.30,793.91 706.90,794.41 705.99,794.25 705.58,793.43 705.65,791.94"/>
    </edge>
    <edge id=":1473258678_0" function="internal">
        <lane id=":1473258678_0_0" index="0" allow="bicycle pedestrian" speed="4.17" length="4.57" width="2.00" shape="791.02,798.95 790.50,799.96 790.50,800.93 791.02,801.88 792.06,802.78"/>
    </edge>
    <edge id=":1473258678_1" function="internal">
        <lane id=":1473258678_1_0" index="0" allow="delivery bicycle pedestrian" speed="5.56" length="5.38" shape="791.02,798.95 787.78,803.23"/>
    </edge>
    <edge id=":1473258678_2" function="internal">
        <lane id=":1473258678_2_0" index="0" allow="delivery bicycle pedestrian" speed="5.56" length="2.41" shape="791.02,798.95 789.62,799.44 788.71,799.27"/>
    </edge>
    <edge id=":1473258678_9" function="internal">
        <lane id=":1473258678_9_0" index="0" speed="5.56" length="2.41" shape="788.71,799.27 788.30,798.44 788.39,796.95"/>
    </edge>
    <edge id=":1473258678_3" function="internal">
        <lane id=":1473258678_3_0" index="0" allow="delivery bicycle pedestrian" speed="4.17" length="4.89" shape="784.07,797.42 785.33,798.05 786.47,798.18 787.49,797.81 788.39,796.95"/>
    </edge>
    <edge id=":1473258678_4" function="internal">
        <lane id=":1473258678_4_0" index="0" allow="bicycle pedestrian" speed="2.78" length="9.63" width="2.00" shape="784.07,797.42 792.06,802.78"/>
    </edge>
    <edge id=":1473258678_5" function="internal">
        <lane id=":1473258678_5_0" index="0" allow="delivery bicycle pedestrian" speed="4.17" length="7.61" shape="784.07,797.42 786.33,799.12 787.70,800.65 788.19,802.03 787.78,803.23"/>
    </edge>
    <edge id=":1473258678_6" function="internal">
        <lane id=":1473258678_6_0" index="0" allow="delivery bicycle pedestrian" speed="5.56" length="5.38" shape="785.15,801.24 788.39,796.95"/>
    </edge>
    <edge id=":1473258678_7" function="internal">
        <lane id=":1473258678_7_0" index="0" allow="bicycle pedestrian" speed="4.17" length="2.74" width="2.00" shape="785.15,801.24 786.17,800.55 787.67,800.58"/>
    </edge>
    <edge id=":1473258678_8" function="internal">
        <lane id=":1473258678_8_0" index="0" allow="delivery bicycle pedestrian" speed="5.56" length="2.41" shape="785.15,801.24 786.55,800.75 787.46,800.92"/>
    </edge>
    <edge id=":1473258678_10" function="internal">
        <lane id=":1473258678_10_0" index="0" speed="4.17" length="4.94" width="2.00" shape="787.67,800.58 789.63,801.32 792.06,802.78"/>
    </edge>
    <edge id=":1473258678_11" function="internal">
        <lane id=":1473258678_11_0" index="0" speed="5.56" length="2.41" shape="787.46,800.92 787.87,801.75 787.78,803.23"/>
    </edge>
    <edge id=":1473258716_0" function="internal">
        <lane id=":1473258716_0_0" index="0" allow="bicycle pedestrian" speed="2.78" length="4.06" width="2.00" shape="804.97,811.61 805.80,812.36 806.17,813.19 806.08,814.10 805.53,815.08"/>
    </edge>
    <edge id=":1473296997_0" function="internal">
        <lane id=":1473296997_0_0" index="0" allow="delivery bicycle pedestrian" speed="5.56" length="5.16" shape="669.12,912.70 668.01,911.77 666.92,911.47 665.82,911.79 664.73,912.73"/>
    </edge>
    <edge id=":1473296997_1" function="internal">
        <lane id=":1473296997_1_0" index="0" allow="delivery bicycle pedestrian" speed="5.56" length="9.31" shape="669.12,912.70 667.27,910.64 666.05,909.19 665.00,907.62 663.63,905.22"/>
    </edge>
    <edge id=":1473296997_2" function="internal">
        <lane id=":1473296997_2_0" index="0" allow="delivery bicycle pedestrian" speed="5.56" length="4.82" shape="669.12,912.70 668.91,911.23 669.25,910.37 670.14,910.13 671.58,910.50"/>
    </edge>
    <edge id=":1473296997_3" function="internal">
        <lane id=":1473296997_3_0" index="0" allow="delivery bicycle pedestrian" speed="5.56" length="8.56" shape="666.52,903.63 667.78,905.83 668.76,907.28 669.88,908.61 671.58,910.50"/>
    </edge>
    <edge id=":1473296997_4" function="internal">
        <lane id=":1473296997_4_0" index="0" allow="delivery bicycle pedestrian" speed="5.56" length="9.92" shape="666.52,903.63 667.30,905.82 667.26,908.06 666.40,910.36 664.73,912.73"/>
    </edge>
    <edge id=":1473296997_5" function="internal">
        <lane id=":1473296997_5_0" index="0" allow="delivery bicycle pedestrian" speed="5.56" length="4.82" shape="666.52,903.63 666.39,905.11 665.87,905.87 664.95,905.91 663.63,905.22"/>
    </edge>
    <edge id=":1473296997_6" function="internal">
        <lane id=":1473296997_6_0" index="0" allow="delivery bicycle pedestrian" speed="5.56" length="5.88" shape="662.24,910.56 663.32,909.09 663.91,907.70 664.02,906.42 663.63,905.22"/>
    </edge>
    <edge id=":1473296997_7" function="internal">
        <lane id=":1473296997_7_0" index="0" allow="delivery bicycle pedestrian" speed="5.56" length="10.99" shape="662.24,910.56 664.56,908.56 666.89,907.88 669.23,908.53 671.58,910.50"/>
    </edge>
    <edge id=":1473296997_8" function="internal">
        <lane id=":1473296997_8_0" index="0" allow="delivery bicycle pedestrian" speed="5.56" length="4.82" shape="662.24,910.56 663.67,910.17 664.57,910.40 664.92,911.25 664.73,912.73"/>
    </edge>
    <edge id=":1474045659_0" function="internal">
        <lane id=":1474045659_0_0" index="0" allow="bicycle pedestrian" speed="2.78" length="5.01" width="2.00" shape="747.71,773.55 751.89,776.30"/>
    </edge>
    <edge id=":1474045659_1" function="internal">
        <lane id=":1474045659_1_0" index="0" allow="bicycle pedestrian" speed="2.78" length="3.86" width="2.00" shape="747.71,773.55 748.56,774.28 748.97,775.07 748.93,775.90 748.44,776.78"/>
    </edge>
    <edge id=":1474045664_0" function="internal">
        <lane id=":1474045664_0_0" index="0" allow="bicycle pedestrian" speed="2.78" length="5.00" width="2.00" shape="772.62,858.02 769.58,861.99"/>
    </edge>
    <edge id=":1474045664_1" function="internal">
        <lane id=":1474045664_1_0" index="0" allow="bicycle pedestrian" speed="2.78" length="3.55" width="2.00" shape="772.62,858.02 771.86,858.82 771.11,859.22 770.36,859.23 769.61,858.86"/>
    </edge>
    <edge id=":1474045669_0" function="internal">
        <lane id=":1474045669_0_0" index="0" allow="delivery bicycle pedestrian" speed="5.56" length="4.82" shape="660.01,918.16 658.58,918.55 657.69,918.32 657.33,917.47 657.52,916.00"/>
    </edge>
    <edge id=":1474045672_0" function="internal">
        <lane id=":1474045672_0_0" index="0" allow="delivery bicycle pedestrian" speed="5.56" length="4.82" shape="594.67,957.63 595.12,959.05 594.92,959.95 594.08,960.34 592.60,960.20"/>
    </edge>
    <edge id=":1474316003_0" function="internal">
        <lane id=":1474316003_0_0" index="0" allow="delivery bicycle pedestrian" speed="5.56" length="6.80" shape="680.18,917.73 678.94,917.76 677.58,918.32 676.09,919.38 674.48,920.97"/>
    </edge>
    <edge id=":1474316003_1" function="internal">
        <lane id=":1474316003_1_0" index="0" allow="delivery bicycle pedestrian" speed="5.56" length="9.62" shape="680.18,917.73 677.40,917.13 675.54,916.53 673.75,915.72 671.18,914.48"/>
    </edge>
    <edge id=":1474316003_2" function="internal">
        <lane id=":1474316003_2_0" index="0" allow="delivery bicycle pedestrian" speed="5.56" length="4.82" shape="680.18,917.73 679.12,916.69 678.87,915.80 679.43,915.07 680.79,914.49"/>
    </edge>
    <edge id=":1474316003_3" function="internal">
        <lane id=":1474316003_3_0" index="0" allow="delivery bicycle pedestrian" speed="5.56" length="8.79" shape="672.58,911.50 674.93,912.63 676.56,913.38 678.26,913.94 680.79,914.49"/>
    </edge>
    <edge id=":1474316003_4" function="internal">
        <lane id=":1474316003_4_0" index="0" allow="delivery bicycle pedestrian" speed="5.56" length="11.99" shape="672.58,911.50 675.46,913.38 676.74,915.59 676.41,918.12 674.48,920.97"/>
    </edge>
    <edge id=":1474316003_5" function="internal">
        <lane id=":1474316003_5_0" index="0" allow="delivery bicycle pedestrian" speed="5.56" length="4.82" shape="672.58,911.50 673.35,912.77 673.37,913.69 672.65,914.26 671.18,914.48"/>
    </edge>
    <edge id=":1474316003_6" function="internal">
        <lane id=":1474316003_6_0" index="0" allow="delivery bicycle pedestrian" speed="5.56" length="5.40" shape="672.03,918.75 672.90,917.47 673.05,916.33 672.48,915.33 671.18,914.48"/>
    </edge>
    <edge id=":1474316003_7" function="internal">
        <lane id=":1474316003_7_0" index="0" allow="delivery bicycle pedestrian" speed="5.56" length="10.16" shape="672.03,918.75 674.30,916.59 676.52,915.16 678.68,914.46 680.79,914.49"/>
    </edge>
    <edge id=":1474316003_8" function="internal">
        <lane id=":1474316003_8_0" index="0" allow="delivery bicycle pedestrian" speed="5.56" length="4.82" shape="672.03,918.75 673.48,918.39 674.36,918.64 674.70,919.50 674.48,920.97"/>
    </edge>
    <edge id=":1474316004_0" function="internal">
        <lane id=":1474316004_0_0" index="0" allow="delivery bicycle pedestrian" speed="5.56" length="4.82" shape="671.22,924.56 669.78,924.92 668.89,924.67 668.56,923.81 668.78,922.34"/>
    </edge>
    <edge id=":1503717543_0" function="internal">
        <lane id=":1503717543_0_0" index="0" allow="delivery bicycle pedestrian" speed="6.95" length="5.00" shape="602.51,1337.81 601.15,1337.66 600.07,1337.98 599.26,1338.77 598.74,1340.04"/>
    </edge>
    <edge id=":1503717543_1" function="internal">
        <lane id=":1503717543_1_0" index="0" disallow="tram rail_urban rail rail_electric ship" speed="8.33" length="9.47" shape="602.51,1337.81 593.38,1335.34"/>
    </edge>
    <edge id=":1503717543_2" function="internal">
        <lane id=":1503717543_2_0" index="0" disallow="tram rail_urban rail rail_electric ship" speed="8.33" length="2.41" shape="602.51,1337.81 601.52,1336.70 601.33,1335.80"/>
    </edge>
    <edge id=":1503717543_9" function="internal">
        <lane id=":1503717543_9_0" index="0" speed="8.33" length="2.41" shape="601.33,1335.80 601.94,1335.10 603.35,1334.62"/>
    </edge>
    <edge id=":1503717543_3" function="internal">
        <lane id=":1503717543_3_0" index="0" disallow="tram rail_urban rail rail_electric ship" speed="8.33" length="9.40" shape="594.27,1332.16 603.35,1334.62"/>
    </edge>
    <edge id=":1503717543_4" function="internal">
        <lane id=":1503717543_4_0" index="0" allow="delivery bicycle pedestrian" speed="6.95" length="5.11" shape="594.27,1332.16 596.82,1333.29 598.41,1334.98"/>
    </edge>
    <edge id=":1503717543_5" function="internal">
        <lane id=":1503717543_5_0" index="0" disallow="tram rail_urban rail rail_electric ship" speed="8.33" length="2.41" shape="594.27,1332.16 595.24,1333.29 595.41,1334.20"/>
    </edge>
    <edge id=":1503717543_10" function="internal">
        <lane id=":1503717543_10_0" index="0" speed="6.95" length="5.16" shape="598.41,1334.98 599.05,1337.23 598.74,1340.04"/>
    </edge>
    <edge id=":1503717543_11" function="internal">
        <lane id=":1503717543_11_0" index="0" speed="8.33" length="2.41" shape="595.41,1334.20 594.79,1334.88 593.38,1335.34"/>
    </edge>
    <edge id=":1503717543_6" function="internal">
        <lane id=":1503717543_6_0" index="0" disallow="tram rail_urban rail rail_electric ship" speed="6.95" length="5.04" shape="595.54,1339.21 595.70,1337.83 595.39,1336.72 594.62,1335.89 593.38,1335.34"/>
    </edge>
    <edge id=":1503717543_7" function="internal">
        <lane id=":1503717543_7_0" index="0" disallow="tram rail_urban rail rail_electric ship" speed="6.95" length="10.34" shape="595.54,1339.21 596.63,1336.60 598.29,1334.96 600.53,1334.30 603.35,1334.62"/>
    </edge>
    <edge id=":1503717543_8" function="internal">