<?xml version="1.0" encoding="UTF-8"?>

<!-- generated on Sat Dec  8 18:25:59 2018 by SUMO duarouter Version 0.30.0
<?xml version="1.0" encoding="UTF-8"?>

<configuration xmlns:xsi="http://www.w3.org/2001/XMLSchema-instance" xsi:noNamespaceSchemaLocation="http://sumo.dlr.de/xsd/duarouterConfiguration.xsd">

    <input>
        <net-file value="osm.net.xml"/>
        <trip-files value="osm.passenger.trips.xml"/>
    </input>

    <output>
        <output-file value="osm.passenger.rou.xml"/>
    </output>

    <processing>
        <ignore-errors value="true"/>
    </processing>

    <time>
        <begin value="0"/>
        <end value="3600.0"/>
    </time>

    <report>
        <no-warnings value="true"/>
        <no-step-log value="true"/>
    </report>

</configuration>
-->

<routes xmlns:xsi="http://www.w3.org/2001/XMLSchema-instance" xsi:noNamespaceSchemaLocation="http://sumo.dlr.de/xsd/routes_file.xsd">
    <vType id="passenger" vClass="passenger"/>
    <vehicle id="veh0" type="passenger" depart="0.00" departLane="best">
        <route edges="25302636#1 -25302636#1 -25294729#0 -156364570#0 25294728 234463931#1 234463931#2 234463931#3 234463931#4 234463931#5 234463928#1 55741054 19002363#3 19002363#4 19002363#6 19002363#8 -19002363#10"/>
    </vehicle>
    <vehicle id="veh2" type="passenger" depart="35.41" departLane="best">
        <route edges="183415643 46140378 46140382 30721660#1 30721660#2 30721660#3 30721660#4 30721660#5 4610362#0 4610362#1 4610362#2 4610362#3 4610362#4 4610362#5 4610362#6 4610362#7 4610362#8 30721662#0 30721662#1 30721662#2 30721662#3 23809670#0 23809670#1 23809670#2 23809670#3 23809670#4 23809670#5 28016312#0 28016312#1 -156364570#4 -156364570#3 -156364570#1 -156364570#0 25294728 234463931#1 234463931#2 234463931#3 234463931#4 234463931#5 234463928#1 55741054 -19002363#2"/>
    </vehicle>
    <vehicle id="veh3" type="passenger" depart="53.12" departLane="best">
        <route edges="-36892597#1 36892597#1 36892597#2 11103418 23809678#1 23809678#4 23809678#5 23809678#7 -19002363#10 -19002363#6 -19002363#4 -19002363#3 -19002363#2 -19002363#1 -19002363#0 4613292#0 4613292#2 24241797#0 24241797#3 23813206#0 23813206#1 23813206#2"/>
    </vehicle>
    <vehicle id="veh4" type="passenger" depart="70.83" departLane="best">
        <route edges="-19002363#10 19002363#8 24241790#0 24241790#1 36892597#0 36892597#1 36892597#2 84960597#0 84960597#1 84960597#2 84960597#3 83517332#0 83517332#1 83517332#2 83517332#4 183415643 46140378 46140382 30721660#1 30721660#2 30721660#3 30721660#4 30721660#5 437325047#0 -437325047#0"/>
    </vehicle>
    <vehicle id="veh5" type="passenger" depart="88.54" departLane="best">
        <route edges="-36892597#1 36892597#1 36892597#2 84960597#0 84960597#1 84960597#2 84960597#3 83517332#0 83517332#1 83517332#2 83517332#4 84960595 316746323#0 316746323#1 370359204#0 370359204#2 275177453 77348147 25294729#0 25294729#1"/>
    </vehicle>
    <vehicle id="veh6" type="passenger" depart="106.24" departLane="best">
        <route edges="4610351#2 30721660#4 30721660#5 4610362#0 4610362#1 4610362#2 4610362#3 4610362#4 4610362#5 4610362#6 4610362#7 4610362#8 30721662#0 30721662#1 30721662#2 30721662#3 23809670#0 23809670#1 23809670#2 23809670#3 23809670#4 23809670#5 28016312#0 28016312#1 -156364570#4 -156364570#3"/>
    </vehicle>
    <vehicle id="veh7" type="passenger" depart="123.95" departLane="best">
        <route edges="-560370523 -437325047#5 -437325047#3 -437325047#2 -437325047#0 4610362#0 4610362#1 4610362#2 4610362#3 4610362#4 4610362#5 4610362#6 4610362#7 4610362#8 30721662#0 30721662#1 30721662#2 30721662#3 23809670#0 23809670#1 23809670#2 23809670#3 23809670#4 23809670#5 28016312#0 28016312#1 -156364570#4 -156364570#3 -156364570#1 -156364570#0 -387892378 -478396988 -370359204#0 -316746323#2 -316746323#0"/>
    </vehicle>
    <vehicle id="veh9" type="passenger" depart="159.36" departLane="best">
        <route edges="234463931#5 -234463928#0 -234463931#4 -234463931#3 -234463931#2 -234463931#1 -234463931#0 -387892378 -478396988 -370359204#0 -316746323#2 -316746323#0 46140376#0 46140376#1 -84960597#3 84960597#3 83517332#0 83517332#1"/>
    </vehicle>
    <vehicle id="veh10" type="passenger" depart="177.07" departLane="best">
        <route edges="112128419#1 112128419#2 24990031 415280722 195401013#2 195401013#3 24914992#1 171826985#1 171826985#3 171826985#5 24913519#1 24913519#2"/>
    </vehicle>
    <vehicle id="veh12" type="passenger" depart="212.49" departLane="best">
        <route edges="-387892378 -478396988 -370359204#0 -316746323#2 -316746323#0 46140376#0 46140376#1 -84960597#3 -84960597#2 -84960597#1"/>
    </vehicle>
    <vehicle id="veh14" type="passenger" depart="247.90" departLane="best">
        <route edges="-23809670#3 23809670#3 23809670#4 23809670#5 28016312#0 28016312#1 156364556#0 156364556#1 202157002#1 202157002#2 202157002#4 72157174#0 72157174#1 171826984#2 171826984#3 171826984#4 171826984#5 24913524#2 24913524#3 24913524#4 4612981 -72678523#2 -72678523#1 -72678523#0"/>
    </vehicle>
    <vehicle id="veh15" type="passenger" depart="265.61" departLane="best">
        <route edges="25294729#0 -25294729#0 -156364570#0 25294728 234463931#1 234463931#2 234463931#3 234463931#4 234463931#5 234463928#1 188914559"/>
    </vehicle>
    <vehicle id="veh16" type="passenger" depart="283.32" departLane="best">
        <route edges="-4613293 -55741054 55741054"/>
    </vehicle>
    <vehicle id="veh17" type="passenger" depart="301.02" departLane="best">
        <route edges="-25294729#1 -25294729#0 -156364570#0 -387892378 -478396988 -370359204#0 -316746323#2 -316746323#0 -84960595 183415643 46140378 46140382 30721660#1 30721660#2 30721660#3 30721660#4 30721660#5 437325047#0 437325047#2 437325047#3 225400578#0 225400578#1 -454285423#4 -454285423#3 -454285423#2 454285423#2"/>
    </vehicle>
    <vehicle id="veh18" type="passenger" depart="318.73" departLane="best">
        <route edges="84960597#0 84960597#1 84960597#2 84960597#3 83517332#0 83517332#1 83517332#2 83517332#4 183415643 46140378 46140382 30721660#1 30721660#2 30721660#3 30721660#4 30721660#5 4610362#0 4610362#1 4610362#2 4610362#3 4610362#4 4610362#5 4610362#6 4610362#7 4610362#8 30721662#0 30721662#1 30721662#2 30721662#3"/>
    </vehicle>
    <vehicle id="veh21" type="passenger" depart="371.85" departLane="best">
        <route edges="-387892378 275177453 25294728 234463931#1 234463931#2 234463931#3 234463931#4 234463931#5 234463928#1 55741054 19002363#3 -19002363#3"/>
    </vehicle>
    <vehicle id="veh22" type="passenger" depart="389.56" departLane="best">
        <route edges="-51167934#3 -51167934#1 -51167934#0 -437325047#3 -437325047#2 -437325047#0 4610362#0 4610362#1 4610362#2 4610362#3 4610362#4 4610362#5 4610362#6 4610362#7 4610362#8 30721662#0 30721662#1 30721662#2 30721662#3 23809670#0 23809670#1 23809670#2 23809670#3 23809670#4 23809670#5 28016312#0 28016312#1 156364556#0 156364556#1 202157002#1 202157002#2 202157002#4 -534588621#1"/>
    </vehicle>
    <vehicle id="veh24" type="passenger" depart="424.97" departLane="best">
        <route edges="30721660#1 30721660#2 30721660#3 30721660#4 30721660#5 4610362#0 4610362#1 4610362#2 4610362#3 4610362#4 4610362#5 4610362#6 4610362#7 4610362#8 30721662#0 30721662#1 30721662#2 30721662#3 23809670#0 23809670#1 23809670#2 23809670#3 23809670#4 23809670#5 28016312#0 28016312#1 156364556#0 156364556#1 202157002#1 202157002#2 202157002#4 72157174#0 72157174#1 171826984#2 171826984#3 171826984#4 171826984#5 24913524#2 24913524#3 24913524#4 195401006"/>
    </vehicle>
    <vehicle id="veh25" type="passenger" depart="442.68" departLane="best">
        <route edges="-4613293 -55741054 -168942727#1 -168942727#0 -48664717#1"/>
    </vehicle>
    <vehicle id="veh26" type="passenger" depart="460.39" departLane="best">
        <route edges="23809678#5 23809678#7 -19002363#10 -19002363#6 -19002363#4 -19002363#3 -55741054 -62363401 -234463928#0 -234463931#4 -234463931#3 -234463931#2 -234463931#1 -234463931#0 77348147 156364570#1 156364570#2 156364570#4 156364556#0 156364556#1 202157002#1 202157002#2 202157002#4 -534588621#1 -534588621#0"/>
    </vehicle>
    <vehicle id="veh27" type="passenger" depart="478.09" departLane="best">
        <route edges="24241797#0 24241797#3 24990040 415280722 195401013#2 195401013#3 24914992#1 171826985#1 171826985#3 171826985#5 4773465#0 4773465#1 4773465#2 4773465#3 490365295#1 490365295#3"/>
    </vehicle>
    <vehicle id="veh28" type="passenger" depart="495.80" departLane="best">
        <route edges="156364570#4 -156364570#4 -156364570#3 -156364570#1 -156364570#0 -387892378 -478396988 -370359204#0 -316746323#2 -316746323#0 -84960595 183415643 46140378 46140382 30721660#1 30721660#2 30721660#3 30721660#4 30721660#5 437325047#0 437325047#2 437325047#3 225400578#0 225400578#1 -454285423#4 -454285423#3"/>
    </vehicle>
    <vehicle id="veh29" type="passenger" depart="513.51" departLane="best">
        <route edges="84960597#3 83517332#0 83517332#1 83517332#2 83517332#4 183415643 46140378 46140382 30721660#1 30721660#2 30721660#3 30721660#4 30721660#5 4610362#0 4610362#1 4610362#2 4610362#3 23852053#0"/>
    </vehicle>
    <vehicle id="veh31" type="passenger" depart="548.92" departLane="best">
        <route edges="-23813206#0 -24241797#3 -24241797#2 -24990168 19002357#0 19002357#1 19002363#0 19002363#1 19002363#2 19002363#3 19002363#4 19002363#6 19002363#8 24241790#0 24241790#1 36892597#0 36892597#1 36892597#2 84960597#0 84960597#1 84960597#2 84960597#3 83517332#0 83517332#1 83517332#2 83517332#4 183415643 46140378 46140382 30721660#1 30721660#2 30721660#3 30721660#4"/>
    </vehicle>
    <vehicle id="veh34" type="passenger" depart="602.04" departLane="best">
        <route edges="83517332#0 83517332#1 83517332#2 83517332#4 84960595 316746323#0 316746323#1 370359204#0 370359204#2 275177453 77348147 156364570#1 156364570#2 156364570#4 156364556#0 156364556#1 202157002#1 202157002#2 202157002#4 4773465#0"/>
    </vehicle>
    <vehicle id="veh35" type="passenger" depart="619.75" departLane="best">
        <route edges="-168942727#0 -48664717#1 -48664717#0 -316746323#2 -316746323#0 -84960595 183415643 46140378 46140382 30721660#1 30721660#2 30721660#3 30721660#4 30721660#5 437325047#0 437325047#2 437325047#3"/>
    </vehicle>
    <vehicle id="veh36" type="passenger" depart="637.46" departLane="best">
        <route edges="-4613293 19002363#3 19002363#4 19002363#6 19002363#8 24241790#0 24241790#1 36892597#0 36892597#1 36892597#2 84960597#0 84960597#1 84960597#2 84960597#3 83517332#0 83517332#1 83517332#2 83517332#4 183415643 46140378 46140382 30721660#1 30721660#2 30721660#3 30721660#4 30721660#5 4610362#0 4610362#1 4610362#2 4610362#3 4610362#4 4610362#5 4610362#6 4610362#7 4610362#8 30721662#0 30721662#1 30721662#2 30721662#3"/>
    </vehicle>
    <vehicle id="veh38" type="passenger" depart="672.87" departLane="best">
        <route edges="19002403#0 19002403#1 523630409 386199333#0 386199333#2 24990168 24241797#0 24241797#3 24990040 415280722 195401013#2 195401013#3 24914992#1 171826985#1 171826985#3 171826985#5 72157174#0"/>
    </vehicle>
    <vehicle id="veh39" type="passenger" depart="690.58" departLane="best">
        <route edges="4613292#0 4613292#2 24241797#0 24241797#3 24990040 415280722 195401013#2 195401013#3 24914992#1 171826985#1 171826985#3 171826985#5 -534588621#1 -534588621#0"/>
    </vehicle>
    <vehicle id="veh41" type="passenger" depart="725.99" departLane="best">
        <route edges="-493008124 -225400578#1 -225400578#0 -437325047#3 -437325047#2 -437325047#0 4610362#0 4610362#1 4610362#2 4610362#3 4610362#4 4610362#5 4610362#6 4610362#7 4610362#8 30721662#0 30721662#1 30721662#2"/>
    </vehicle>
    <vehicle id="veh42" type="passenger" depart="743.70" departLane="best">
        <route edges="24990168 -24990168 19002357#0 19002357#1 19002363#0 19002363#1 19002363#2 -55741054 -62363401 -234463928#0 -234463931#4 -234463931#3 -234463931#2 -234463931#1 -234463931#0 77348147 156364570#1 156364570#2 156364570#4 -28016312#3"/>
    </vehicle>
    <vehicle id="veh43" type="passenger" depart="761.41" departLane="best">
        <route edges="454285423#0 -454285423#0 4610351#0 4610351#1 4610351#2 30721660#4 30721660#5 4610362#0 4610362#1 4610362#2 4610362#3 4610362#4 4610362#5 4610362#6 4610362#7 4610362#8 30721662#0 30721662#1 30721662#2 30721662#3 23809670#0 23809670#1 23809670#2 23809670#3 23809670#4 23809670#5 28016312#0 28016312#1 -156364570#4 -156364570#3 -156364570#1 -156364570#0 25294728 234463931#1 234463931#2 234463931#3 234463931#4 234463931#5 234463928#1 55741054 19002363#3 19002363#4 19002363#6 19002363#8 24241790#0"/>
    </vehicle>
    <vehicle id="veh44" type="passenger" depart="779.12" departLane="best">
        <route edges="-156364570#0 77348147 156364570#1 156364570#2 156364570#4 156364556#0 156364556#1 202157002#1 202157002#2 202157002#4 72157174#0 72157174#1 171826984#2 171826984#3 171826984#4 171826984#5 24913524#2 24913524#3 24913524#4 195401006 195401017#2 195401017#3 139877314#1 139877314#2"/>
    </vehicle>
    <vehicle id="veh45" type="passenger" depart="796.82" departLane="best">
        <route edges="-188914559 -62363401 -234463928#0 -234463931#4 -234463931#3 -234463931#2 -234463931#1 -234463931#0 -387892378 -478396988 -370359204#0 -316746323#2 -316746323#0 -84960595 183415643 46140378 46140382 30721660#1 30721660#2 30721660#3 30721660#4 30721660#5 437325047#0 437325047#2 437325047#3 51167934#0 51167934#1 51167934#2"/>
    </vehicle>
    <vehicle id="veh46" type="passenger" depart="814.53" departLane="best">
        <route edges="4613292#2 -24990168 19002357#0 19002357#1 19002363#0 4613295"/>
    </vehicle>
    <vehicle id="veh47" type="passenger" depart="832.24" departLane="best">
        <route edges="-51167934#0 -437325047#3 -437325047#2 -437325047#0 4610362#0 4610362#1 4610362#2 4610362#3 4610362#4 4610362#5 4610362#6 4610362#7 4610362#8 30721662#0 30721662#1 30721662#2 30721662#3 23809670#0 23809670#1 23809670#2 23809670#3 23809670#4 23809670#5 28016312#0 28016312#1 -156364570#4 -156364570#3 -156364570#1 -156364570#0 25294728 234463931#1 234463931#2 -234463931#2"/>
    </vehicle>
    <vehicle id="veh48" type="passenger" depart="849.95" departLane="best">
        <route edges="4613292#2 -24990168 19002357#0 19002357#1 19002363#0 19002363#1 19002363#2 19002363#3 19002363#4 19002363#6 19002363#8 24241790#0 24241790#1 36892597#0 36892597#1 36892597#2 84960597#0 84960597#1 84960597#2 84960597#3 83517332#0 83517332#1 83517332#2 83517332#4 183415643 46140378 46140382 30721660#1 30721660#2 30721660#3 30721660#4 30721660#5 437325047#0 437325047#2 437325047#3 437325047#5 560370523"/>
    </vehicle>
    <vehicle id="veh50" type="passenger" depart="885.36" departLane="best">
        <route edges="437325047#0 -437325047#0 4610362#0 4610362#1 4610362#2 4610362#3 4610362#4 4610362#5 4610362#6 4610362#7 4610362#8 30721662#0 30721662#1 30721662#2 30721662#3 23809670#0 23809670#1 23809670#2 23809670#3 23809670#4 23809670#5 28016312#0 28016312#1 -156364570#4 -156364570#3 -156364570#1 -156364570#0 25294728 234463931#1 234463931#2 234463931#3 234463931#4 234463931#5 234463928#1 55741054 -19002363#2 -19002363#1 -19002363#0 4613292#0 4613292#2 -24990168 -24993933#4 -24993933#1 -24993933#0"/>
    </vehicle>
    <vehicle id="veh51" type="passenger" depart="903.07" departLane="best">
        <route edges="195401013#3 24914992#1 171826985#1 171826985#3 171826985#5 24913519#1 24913519#2"/>
    </vehicle>
    <vehicle id="veh52" type="passenger" depart="920.77" departLane="best">
        <route edges="-4613293 -55741054 -62363401 -234463928#0 -234463931#4 -234463931#3 -234463931#2 -234463931#1 -234463931#0 77348147 156364570#1 156364570#2 156364570#4 156364556#0 156364556#1 202157002#1 202157002#2 202157002#4 72157174#0 72157174#1 171826984#2 171826984#3 171826984#4 171826984#5 24913524#2 24913524#3 24913524#4 195401006 195401017#2 4790825#0"/>
    </vehicle>
    <vehicle id="veh53" type="passenger" depart="938.48" departLane="best">
        <route edges="-316746323#2 316746323#1 370359204#0 370359204#2 275177453 77348147 156364570#1 156364570#2 156364570#4 156364556#0 156364556#1 202157002#1 202157002#2 202157002#4 72157174#0 72157174#1 171826984#2 171826984#3 171826984#4 171826984#5 24913524#2 24913524#3 24913524#4 195401006 195401017#2 195401017#3 139877314#1 139877314#2"/>
    </vehicle>
    <vehicle id="veh54" type="passenger" depart="956.19" departLane="best">
        <route edges="19002363#1 19002363#2 19002363#3 19002363#4 19002363#6 19002363#8 24241762#0 24241762#1"/>
    </vehicle>
    <vehicle id="veh56" type="passenger" depart="991.60" departLane="best">
        <route edges="-560370523 -437325047#5 -437325047#3 -437325047#2 -437325047#0 4610362#0 4610362#1 4610362#2 4610362#3 4610362#4 4610362#5 4610362#6 4610362#7 4610362#8 30721662#0 30721662#1 30721662#2 30721662#3 23809670#0 23809670#1 23809670#2 23809670#3 23809670#4 23809670#5 28016312#0 28016312#1 -156364570#4 -156364570#3 -156364570#1 25294729#0 25294729#1"/>
    </vehicle>
    <vehicle id="veh58" type="passenger" depart="1027.02" departLane="best">
        <route edges="-387892378 -478396988 -370359204#0 -316746323#2 -316746323#0 -84960595 183415643 46140378 46140382 30721660#1 30721660#2 30721660#3 30721660#4 30721660#5 437325047#0 437325047#2 437325047#3 225400578#0 225400578#1 493008124"/>
    </vehicle>
    <vehicle id="veh62" type="passenger" depart="1097.85" departLane="best">
        <route edges="534588621#0 534588621#1 4773465#0 4773465#1 4773465#2 4773465#3 490365295#1 490365295#3 -156364570#4 -156364570#3 -156364570#1 -156364570#0 25294728 234463931#1 234463931#2 234463931#3 234463931#4 234463931#5 234463928#1 55741054 -19002363#2 -19002363#1 -19002363#0 4613292#0 4613292#2 24241797#0 24241797#3 24990040"/>
    </vehicle>
    <vehicle id="veh63" type="passenger" depart="1115.55" departLane="best">
        <route edges="195401013#2 195401013#3 24914992#1 171826985#1 171826985#3 171826985#5 4773465#0 4773465#1 4773465#2 4773465#3 490365295#1 490365295#3 -156364570#4 -156364570#3 -156364570#1 -156364570#0 -387892378 -478396988 -370359204#0 -316746323#2 -316746323#0 -84960595 183415643 46140378 46140382 30721660#1 30721660#2 30721660#3 30721660#4 30721660#5 4610362#0 4610362#1 4610362#2 4610362#3 4610362#4 4610362#5 4610362#6 4610362#7"/>
    </vehicle>
    <vehicle id="veh68" type="passenger" depart="1204.09" departLane="best">
        <route edges="183415643 46140378 46140382 30721660#1 30721660#2 30721660#3 30721660#4 30721660#5 4610362#0 4610362#1 4610362#2 4610362#3 4610362#4 4610362#5 4610362#6 4610362#7 4610362#8 30721662#0 30721662#1 30721662#2 30721662#3 23809670#0 23809670#1 23809670#2 23809670#3 23809670#4 23809670#5 28016312#0 28016312#1 156364556#0 156364556#1 202157002#1 202157002#2 202157002#4 72157174#0 72157174#1 171826984#2 171826984#3 171826984#4 171826984#5 24913524#2 24913524#3 24913524#4 4612981 -72678523#2 -72678523#1"/>
    </vehicle>
    <vehicle id="veh69" type="passenger" depart="1221.80" departLane="best">
        <route edges="-454285423#3 -454285423#2 -454285423#1 -454285423#0 4610351#0 4610351#1 4610351#2 30721660#4 30721660#5 437325047#0 437325047#2 437325047#3 51167934#0 51167934#1 51167934#2"/>
    </vehicle>
    <vehicle id="veh70" type="passenger" depart="1239.50" departLane="best">
        <route edges="19002363#3 -19002363#3 -55741054 -62363401 -234463928#0 -234463931#4 -234463931#3 -234463931#2 -234463931#1 -234463931#0 77348147 156364570#1 156364570#2 156364570#4 156364556#0 156364556#1 202157002#1 202157002#2 202157002#4 4773465#0"/>
    </vehicle>
    <vehicle id="veh71" type="passenger" depart="1257.21" departLane="best">
        <route edges="23809670#5 28016312#0 28016312#1 -156364570#4 -156364570#3 -156364570#1 -156364570#0 25294728 234463931#1 234463931#2 234463931#3 234463931#4 234463931#5 -234463928#0"/>
    </vehicle>
    <vehicle id="veh72" type="passenger" depart="1274.92" departLane="best">
        <route edges="84960597#3 -84960597#3 -84960597#2 -84960597#1 -84960597#0 11103418 23809678#1 23809678#4 23809678#5 23809678#7 -19002363#10 -19002363#6 -19002363#4 -19002363#3 -19002363#2 -19002363#1 4613295"/>
    </vehicle>
    <vehicle id="veh73" type="passenger" depart="1292.62" departLane="best">
        <route edges="77348147 -156364570#0 -387892378 -478396988 -370359204#0 -316746323#2 -316746323#0 -84960595 183415643 46140378 46140382 30721660#1 30721660#2 30721660#3 30721660#4 30721660#5 437325047#0 437325047#2 437325047#3 51167934#0 51167934#1 51167934#2"/>
    </vehicle>
    <vehicle id="veh74" type="passenger" depart="1310.33" departLane="best">
        <route edges="202156994#0 4773465#0 4773465#1 4773465#2 4773465#3 490365295#1 490365295#3 -156364570#4 -156364570#3 -156364570#1 -156364570#0 -387892378 -478396988 -370359204#0 -316746323#2 -316746323#0 -84960595 183415643 46140378 46140382 30721660#1 30721660#2 30721660#3 30721660#4 30721660#5 437325047#0 437325047#2 437325047#3 225400578#0 225400578#1 -454285423#4 -454285423#3 -454285423#2 -454285423#1"/>
    </vehicle>
    <vehicle id="veh76" type="passenger" depart="1345.75" departLane="best">
        <route edges="-4613293 19002363#3 19002363#4 19002363#6 19002363#8 24241790#0 24241790#1 36892597#0 36892597#1 36892597#2 84960597#0 84960597#1 84960597#2 84960597#3 83517332#0 83517332#1 83517332#2 83517332#4 183415643 46140378 46140382 30721660#1 30721660#2 30721660#3 30721660#4 30721660#5 4610362#0 4610362#1 4610362#2 4610362#3 4610362#4 4610362#5 4610362#6 4610362#7"/>
    </vehicle>
    <vehicle id="veh79" type="passenger" depart="1398.87" departLane="best">
        <route edges="23809678#1 23809678#4 23809678#5 23809678#7 24241790#0 24241790#1 36892597#0 36892597#1 36892597#2 84960597#0 84960597#1 84960597#2 84960597#3 83517332#0 83517332#1 83517332#2 83517332#4 183415643 46140378 46140382 30721660#1 30721660#2 30721660#3 30721660#4 30721660#5 437325047#0 437325047#2"/>
    </vehicle>
    <vehicle id="veh80" type="passenger" depart="1416.58" departLane="best">
        <route edges="-24241797#3 -24241797#2 -24990168 19002357#0 19002357#1 19002363#0 19002363#1 19002363#2 19002363#3 19002363#4 19002363#6 19002363#8 24241790#0 24241790#1 36892597#0 36892597#1 36892597#2 84960597#0 84960597#1 84960597#2 84960597#3 -84960597#3"/>
    </vehicle>
    <vehicle id="veh81" type="passenger" depart="1434.28" departLane="best">
        <route edges="77348147 -156364570#0 25294728 234463931#1 234463931#2 234463931#3 234463931#4 234463931#5 234463928#1 55741054 -19002363#2 -19002363#1 -19002363#0 4613292#0 4613292#2 -24990168 -24993933#4 24993933#2"/>
    </vehicle>
    <vehicle id="veh82" type="passenger" depart="1451.99" departLane="best">
        <route edges="23809670#2 23809670#3 23809670#4 23809670#5 28016312#0 28016312#1 -156364570#4 -156364570#3 -156364570#1 -156364570#0 -387892378 -478396988 -370359204#0 -316746323#2 -316746323#0 46140376#0 46140376#1 -84960597#3 -84960597#2 -84960597#1 -84960597#0 -36892597#2 4610355#0 4610355#1"/>
    </vehicle>
    <vehicle id="veh83" type="passenger" depart="1469.70" departLane="best">
        <route edges="-225400578#1 -225400578#0 -437325047#3 -437325047#2 -437325047#0 4610362#0 4610362#1 4610362#2 4610362#3 4610362#4 4610362#5 4610362#6 4610362#7 4610362#8 30721662#0 30721662#1 30721662#2 30721662#3 23809670#0 23809670#1 23809670#2 23809670#3 23809670#4 23809670#5 28016312#0 28016312#1 -156364570#4 -156364570#3 -156364570#1 25294729#0"/>
    </vehicle>
    <vehicle id="veh84" type="passenger" depart="1487.40" departLane="best">
        <route edges="202157002#4 4773465#0 4773465#1 4773465#2 4773465#3 490365295#1 490365295#3 -156364570#4 -156364570#3 -156364570#1 -156364570#0 -387892378 -478396988 -370359204#0 -316746323#2 -316746323#0 46140376#0 46140376#1"/>
    </vehicle>
    <vehicle id="veh85" type="passenger" depart="1505.11" departLane="best">
        <route edges="-234463928#0 -234463931#4 -234463931#3 -234463931#2 -234463931#1 -234463931#0 -387892378 -478396988 -370359204#0 -316746323#2 -316746323#0 46140376#0 46140376#1 -84960597#3 -84960597#2 -84960597#1 -84960597#0 -36892597#2 -36892597#1 -36892597#0"/>
    </vehicle>
    <vehicle id="veh87" type="passenger" depart="1540.53" departLane="best">
        <route edges="-437325047#3 -437325047#2 -437325047#0 4610362#0 4610362#1 4610362#2 4610362#3 4610362#4 4610362#5 4610362#6 4610362#7 4610362#8 30721662#0 30721662#1 30721662#2 30721662#3 23809670#0 23809670#1 23809670#2 23809670#3 23809670#4 23809670#5 28016312#0 28016312#1 -156364570#4 -156364570#3 -156364570#1 -156364570#0 25294728 234463931#1 234463931#2 234463931#3 234463931#4 234463931#5 234463928#1 55741054 -19002363#2 -19002363#1 -19002363#0 4613292#0 4613292#2 -24990168 -24993933#4 -24993933#1 -24993933#0"/>
    </vehicle>
    <vehicle id="veh90" type="passenger" depart="1593.65" departLane="best">
        <route edges="-437325047#5 -437325047#3 -437325047#2 -437325047#0 4610362#0 4610362#1 4610362#2 4610362#3 4610362#4 4610362#5 4610362#6 4610362#7 4610362#8 30721662#0 30721662#1 30721662#2 30721662#3 23809670#0 23809670#1 23809670#2 23809670#3 23809670#4 23809670#5 28016312#0 28016312#1 156364556#0 156364556#1 202157002#1 202157002#2 202157002#4 72157174#0 72157174#1 171826984#2 171826984#3 171826984#4 171826984#5 24913524#2 24913524#3 24913524#4 195401006"/>
    </vehicle>
    <vehicle id="veh91" type="passenger" depart="1611.35" departLane="best">
        <route edges="30721662#1 30721662#2 30721662#3 23809670#0 23809670#1 23809670#2 23809670#3 23809670#4 23809670#5 28016312#0 28016312#1 -156364570#4 -156364570#3 -156364570#1 -156364570#0 -387892378 -478396988 -370359204#0 -316746323#2 -316746323#0 46140376#0 46140376#1 -84960597#3 -84960597#2 -84960597#1 -84960597#0 11103418"/>
    </vehicle>
    <vehicle id="veh92" type="passenger" depart="1629.06" departLane="best">
        <route edges="-51167934#3 -51167934#1 -51167934#0 -437325047#3 -437325047#2 -437325047#0 4610362#0 4610362#1 4610362#2 4610362#3 4610362#4 4610362#5 4610362#6 4610362#7 4610362#8 30721662#0 30721662#1 30721662#2 30721662#3 23809670#0 23809670#1 23809670#2 23809670#3 23809670#4 23809670#5 28016312#0 28016312#1 -156364570#4 -156364570#3 -156364570#1 -156364570#0 -387892378 -478396988 -370359204#0 -316746323#2 -316746323#0 46140376#0 46140376#1 -84960597#3 -84960597#2 -84960597#1 -84960597#0 -36892597#2 4610355#0 4610355#1 4610355#2"/>
    </vehicle>
    <vehicle id="veh96" type="passenger" depart="1699.89" departLane="best">
        <route edges="24990168 -24990168 19002357#0 19002357#1 19002363#0 19002363#1 19002363#2 19002363#3 19002363#4 19002363#6 19002363#8 24241790#0 24241790#1 36892597#0 36892597#1 36892597#2 84960597#0 84960597#1 84960597#2 84960597#3 83517332#0 83517332#1 83517332#2 83517332#4 84960595"/>
    </vehicle>
    <vehicle id="veh97" type="passenger" depart="1717.60" departLane="best">
        <route edges="4610362#0 4610362#1 4610362#2 4610362#3 4610362#4 4610362#5 4610362#6 4610362#7 4610362#8 30721662#0 30721662#1 30721662#2 30721662#3 23809670#0 23809670#1 23809670#2 23809670#3 23809670#4 23809670#5 28016312#0 28016312#1 -156364570#4 -156364570#3 -156364570#1 -156364570#0 -387892378 -478396988 -370359204#0 -316746323#2 -316746323#0 46140376#0 46140376#1 -84960597#3 -84960597#2 -84960597#1 -84960597#0 11103418"/>
    </vehicle>
    <vehicle id="veh98" type="passenger" depart="1735.30" departLane="best">
        <route edges="30721660#4 30721660#5 4610362#0 4610362#1 4610362#2 4610362#3 4610362#4 4610362#5 4610362#6 4610362#7 4610362#8 30721662#0 30721662#1 30721662#2 30721662#3 23809670#0 23809670#1 23809670#2 23809670#3 23809670#4 23809670#5 28016312#0 28016312#1 -156364570#4 -156364570#3 -156364570#1 -156364570#0 25294728 234463931#1 234463931#2 234463931#3 234463931#4 234463931#5 234463928#1 55741054"/>
    </vehicle>
    <vehicle id="veh99" type="passenger" depart="1753.01" departLane="best">
        <route edges="-24241762#2 -24241762#0 -19002363#10 -19002363#6 -19002363#4 -19002363#3 -19002363#2 -19002363#1 -19002363#0 4613292#0 4613292#2 24241797#0 24241797#3 24990040 -24990040"/>
    </vehicle>
    <vehicle id="veh101" type="passenger" depart="1788.43" departLane="best">
        <route edges="25294729#0 -25294729#0 156364570#1 156364570#2 156364570#4 156364556#0 156364556#1 202157002#1 202157002#2 202157002#4 -534588621#1 -534588621#0"/>
    </vehicle>
    <vehicle id="veh102" type="passenger" depart="1806.13" departLane="best">
        <route edges="202156994#0 4773465#0 4773465#1 4773465#2 4773465#3 490365295#1 490365295#3 -156364570#4 -156364570#3 -156364570#1 -156364570#0 -387892378 -478396988 -370359204#0 -316746323#2 -316746323#0 -84960595 183415643 46140378 46140382 30721660#1 30721660#2 30721660#3 30721660#4 30721660#5 437325047#0 437325047#2 437325047#3 225400578#0 225400578#1 493008124"/>
    </vehicle>
    <vehicle id="veh104" type="passenger" depart="1841.55" departLane="best">
        <route edges="183415643 46140378 46140382 30721660#1 30721660#2 30721660#3 30721660#4 30721660#5 4610362#0 4610362#1 4610362#2 4610362#3 4610362#4 4610362#5 4610362#6 4610362#7 4610362#8 30721662#0 30721662#1 30721662#2 30721662#3 23809670#0 23809670#1 23809670#2 23809670#3 23809670#4 23809670#5 28016312#0 28016312#1 156364556#0 156364556#1 202157002#1 202157002#2 202157002#4 72157174#0 72157174#1 171826984#2 171826984#3 171826984#4 171826984#5 24913524#2 24913524#3 24913524#4 4612981 -72678523#2 -72678523#1 -72678523#0"/>
    </vehicle>
    <vehicle id="veh105" type="passenger" depart="1859.25" departLane="best">
        <route edges="-156364570#1 -156364570#0 -387892378 -478396988 -370359204#0 -316746323#2 -316746323#0 -84960595 183415643 46140378 46140382 30721660#1 30721660#2 30721660#3 30721660#4 30721660#5 4610362#0 4610362#1 4610362#2"/>
    </vehicle>
    <vehicle id="veh106" type="passenger" depart="1876.96" departLane="best">