<?xml version="1.0" encoding="UTF-8"?>

<!-- generated on Sat Dec  8 18:25:58 2018 by SUMO polyconvert Version 0.30.0
<?xml version="1.0" encoding="UTF-8"?>

<configuration xmlns:xsi="http://www.w3.org/2001/XMLSchema-instance" xsi:noNamespaceSchemaLocation="http://sumo.dlr.de/xsd/polyconvertConfiguration.xsd">

    <input>
        <net-file value="/home/jordan/Downloads/sumo-0.30.0/tools/2018-12-08-18-25-54/osm.net.xml"/>
        <osm-files value="osm_bbox.osm.xml"/>
        <osm.keep-full-type value="true"/>
        <type-file value="/home/jordan/Downloads/sumo-0.30.0/data/typemap/osmPolyconvert.typ.xml"/>
    </input>

    <output>
        <output-file value="/home/jordan/Downloads/sumo-0.30.0/tools/2018-12-08-18-25-54/osm.poly.xml"/>
    </output>

    <processing>
        <poi-layer-offset value="5"/>
    </processing>

    <report>
        <verbose value="true"/>
    </report>

</configuration>
-->

<additional xmlns:xsi="http://www.w3.org/2001/XMLSchema-instance" xsi:noNamespaceSchemaLocation="http://sumo.dlr.de/xsd/additional_file.xsd">
    <location netOffset="-390616.10,-5819313.79" convBoundary="-7183.07,-1495.07,5238.66,3032.33" origBoundary="13.282814,52.498035,13.465648,52.540419" projParameter="+proj=utm +zone=33 +ellps=WGS84 +datum=WGS84 +units=m +no_defs"/>

    <poly id="100575040" type="leisure.park" color="207,245,201" fill="1" layer="-2.00" shape="727.57,1308.05 726.67,1307.86 720.67,1306.42 714.72,1304.93 721.75,1278.27 729.82,1249.52 706.86,1243.73 708.74,1231.76 700.09,1230.40 694.86,1232.27 690.13,1235.18 692.76,1241.27 684.81,1244.38 678.56,1246.87 676.21,1241.29 665.95,1246.31 667.52,1247.90 667.08,1250.17 665.06,1251.09 664.46,1254.35 658.17,1252.37 658.44,1251.03 646.81,1254.01 638.12,1256.30 637.36,1257.87 633.73,1258.86 631.69,1257.77 627.77,1244.56 628.43,1244.32 627.59,1241.24 625.96,1236.65 614.57,1241.90 602.00,1247.69 598.85,1249.26 596.48,1252.52 599.74,1258.04 594.45,1260.86 595.07,1261.91 592.47,1270.17 590.00,1278.05 587.92,1284.62 583.95,1283.01 579.53,1285.89 597.40,1302.84 603.05,1304.29 610.95,1306.39 617.81,1308.14 623.58,1309.62 628.58,1310.94 634.36,1312.43 650.81,1316.70 667.46,1320.83 684.26,1325.01 690.19,1326.53 695.51,1327.89 701.25,1329.35 707.88,1331.04 712.92,1332.35 719.45,1333.98 720.51,1334.25 722.37,1327.15 727.57,1308.05"/>
    <poly id="100575042" type="building.residential" color="255,230,230" fill="1" layer="-1.00" shape="695.64,1351.48 701.25,1329.35 695.51,1327.89 694.90,1330.14 695.34,1330.28 693.96,1335.81 694.39,1336.39 693.69,1337.23 692.39,1336.82 692.53,1336.30 688.74,1335.31 688.60,1336.06 686.87,1335.61 686.67,1334.58 687.57,1334.24 688.84,1328.80 689.56,1329.00 690.19,1326.53 684.26,1325.01 682.14,1333.44 678.72,1347.09 695.64,1351.48"/>
    <poly id="100950874" type="building.commercial" color="255,230,230" fill="1" layer="-1.00" shape="1032.22,1015.14 1012.89,1006.60 1008.75,996.28 1020.48,975.91 1033.83,983.14 1032.22,1015.14"/>
    <poly id="100950876" type="building.commercial" color="255,230,230" fill="1" layer="-1.00" shape="1070.56,956.91 1066.62,963.49 1059.41,975.57 1056.99,979.61 1057.42,1023.70 1057.63,1029.24 1059.00,1033.14 1060.95,1036.56 1063.59,1039.80 1068.58,1043.78 1071.76,1045.35 1091.57,1053.00 1123.40,985.39 1070.56,956.91"/>
    <poly id="100950877" type="building.commercial" color="255,230,230" fill="1" layer="-1.00" shape="1102.41,992.00 1082.71,1033.88 1076.46,1031.70 1073.79,1030.07 1072.18,1027.22 1071.13,1021.75 1072.84,990.08 1098.24,990.17 1102.41,992.00"/>
    <poly id="100950878" type="building.commercial" color="255,230,230" fill="1" layer="-1.00" shape="1041.19,1033.20 1046.51,1019.38 1046.66,1015.99 1047.93,987.46 1047.85,983.56 1046.31,978.88 1043.82,974.78 1039.87,970.99 1035.92,969.19 1024.73,963.26 1014.43,957.82 995.18,991.95 993.40,998.01 993.54,1003.76 995.23,1010.26 1002.08,1017.89 1041.19,1033.20"/>
    <poly id="102522991" type="landuse.construction" color="194,194,130" fill="1" layer="-3.00" shape="1415.95,675.89 1406.61,687.61 1335.20,697.38 1318.17,687.95 1307.51,680.03 1271.12,653.02 1272.77,645.08 1305.40,600.86 1311.60,606.18 1332.34,609.05 1365.96,632.41 1377.53,614.06 1382.47,613.15 1423.85,642.59 1420.87,646.95 1429.01,653.70 1415.95,675.89"/>
    <poly id="102864701" type="building.residential" color="255,230,230" fill="1" layer="-1.00" shape="1211.70,1372.51 1202.52,1360.60 1202.27,1360.28 1204.85,1358.29 1205.11,1358.62 1205.65,1358.21 1205.41,1357.88 1207.98,1355.90 1208.24,1356.23 1208.76,1355.84 1208.51,1355.50 1211.08,1353.52 1211.35,1353.87 1211.90,1353.44 1211.63,1353.09 1214.21,1351.12 1214.48,1351.47 1216.31,1350.10 1225.19,1362.17 1217.73,1367.90 1217.58,1367.73 1215.94,1369.00 1216.07,1369.16 1213.89,1370.83 1211.70,1372.51"/>
    <poly id="102864702" type="building.residential" color="255,230,230" fill="1" layer="-1.00" shape="1205.74,1399.18 1212.11,1394.31 1203.63,1383.26 1202.86,1383.85 1200.49,1380.81 1200.84,1380.55 1200.99,1380.73 1202.87,1379.29 1202.75,1379.13 1204.40,1377.84 1204.54,1378.03 1211.70,1372.51 1202.52,1360.60 1186.22,1373.06 1205.74,1399.18"/>
    <poly id="104786906" type="building.yes" color="255,230,230" fill="1" layer="-1.00" shape="406.71,758.03 470.03,769.62 463.03,779.71 459.34,784.50 454.87,790.30 452.96,792.78 438.86,791.85 427.48,791.11 428.08,783.94 449.59,785.61 450.92,778.59 411.06,771.86 409.55,772.94 407.70,782.28 408.73,783.45 408.53,784.46 407.68,784.86 407.46,789.56 403.97,789.34 400.67,789.11 401.07,787.01 404.93,767.63 406.54,757.57 406.71,758.03"/>
    <poly id="104786910" type="building.yes" color="255,230,230" fill="1" layer="-1.00" shape="513.20,766.47 525.87,749.90 509.77,737.32 510.48,736.40 509.70,735.80 512.77,731.80 513.48,732.34 514.43,731.12 518.38,734.16 519.14,733.17 535.92,746.07 543.18,736.76 553.24,739.85 533.07,765.97 525.58,775.69 513.20,766.47"/>
    <poly id="104786915" type="building.yes" color="255,230,230" fill="1" layer="-1.00" shape="510.71,759.61 497.18,757.20 496.06,763.44 509.57,765.95 510.71,759.61"/>
    <poly id="104786916" type="building.yes" color="255,230,230" fill="1" layer="-1.00" shape="539.00,691.87 534.16,708.96 572.24,719.96 577.04,705.99 574.38,704.88 571.82,702.96 569.12,700.79 565.42,699.25 551.11,695.21 539.00,691.87"/>
    <poly id="105210597" type="building.residential" color="255,230,230" fill="1" layer="-1.00" shape="1128.90,1395.19 1166.39,1364.44 1157.55,1355.72 1133.32,1374.85 1129.86,1371.04 1124.26,1376.06 1122.73,1374.41 1116.83,1378.94 1117.60,1379.98 1121.14,1384.77 1128.90,1395.19"/>
    <poly id="109089263" type="building.residential" color="255,230,230" fill="1" layer="-1.00" shape="781.43,1182.74 783.15,1200.34 784.89,1200.15 786.04,1213.44 785.37,1213.55 784.05,1220.72 789.68,1221.81 797.77,1185.08 797.26,1184.50 798.08,1181.92 795.75,1182.25 795.22,1181.38 781.43,1182.74"/>
    <poly id="109089264" type="building.residential" color="255,230,230" fill="1" layer="-1.00" shape="763.52,1215.09 769.16,1215.01 769.15,1214.53 774.54,1214.49 774.55,1214.94 779.87,1214.92 778.23,1197.01 776.98,1196.15 764.05,1196.94 762.70,1198.14 763.52,1215.09"/>
    <poly id="113589278" type="leisure.playground" color="207,245,201" fill="1" layer="-2.00" shape="620.44,1287.72 618.49,1286.57 617.80,1283.43 618.74,1280.08 620.90,1277.51 624.60,1274.59 628.60,1273.16 632.20,1272.70 634.97,1273.12 636.80,1275.23 637.44,1277.26 635.53,1280.55 633.06,1283.32 631.21,1285.35 628.46,1287.00 625.22,1288.24 622.53,1288.15 620.44,1287.72"/>
    <poly id="11548677" type="waterway.riverbank" color="181,209,209" fill="0" layer="-4.00" shape="1543.18,-2.24 1513.30,-19.29 1380.60,-89.13 1373.09,-96.15 1362.68,-103.68 1359.98,-105.64 1343.59,-117.49 1301.78,-145.95 1249.58,-172.15 1237.24,-176.74 1215.16,-184.76 1208.50,-188.18 1206.10,-189.09 1184.47,-193.68 1121.42,-201.43 1075.88,-199.33 1055.10,-197.48 1050.83,-196.69 1048.30,-195.72 1045.24,-193.88 1042.30,-191.50 1040.19,-189.54 1038.60,-187.60 1037.34,-185.83 1018.91,-150.35 1011.26,-135.70 897.31,60.20 891.78,69.97 838.52,176.17 824.17,218.29 785.97,313.48 777.93,329.79 699.78,481.17 695.06,518.32 667.04,624.05 648.52,674.63 650.15,678.31 647.62,682.94 634.47,704.04 632.68,703.84 623.60,720.08 569.57,759.45 476.11,871.96 463.84,886.84 451.72,901.25 393.00,972.63 395.66,974.86 386.10,986.59 383.40,984.41 381.13,988.43 375.74,990.82"/>
    <poly id="121717655" type="building.yes" color="255,230,230" fill="1" layer="-1.00" shape="613.86,707.47 621.69,695.00 588.28,674.17 583.99,686.60 604.37,699.30 603.32,700.95 613.86,707.47"/>
    <poly id="121717655#1" type="shop.art" color="237,199,255" fill="1" layer="-1.00" shape="613.86,707.47 621.69,695.00 588.28,674.17 583.99,686.60 604.37,699.30 603.32,700.95 613.86,707.47"/>
    <poly id="121717656" type="landuse.construction" color="194,194,130" fill="1" layer="-3.00" shape="659.15,703.67 649.47,716.19 591.10,770.60 578.51,787.06 617.97,818.08 688.47,722.51 677.55,715.50 664.06,706.82 659.15,703.67"/>
    <poly id="121717767" type="leisure.park" color="207,245,201" fill="1" layer="-2.00" shape="712.06,794.25 736.87,813.07 738.57,810.73 737.45,809.32 737.06,807.87 737.17,806.48 738.00,804.97 739.34,803.92 740.95,803.58 742.29,803.81 743.47,804.83 745.69,801.99 748.33,804.02 749.09,803.06 750.85,802.13 752.64,802.21 754.28,803.32 755.33,804.79 755.52,806.41 755.07,807.93 754.28,808.92 757.51,811.43 755.34,814.21 756.49,815.27 757.10,816.57 756.84,818.07 756.07,819.30 754.78,820.33 753.09,820.64 751.77,820.23 750.85,819.65 748.92,822.22 767.21,836.09 725.09,891.60 736.37,900.06 801.92,813.98 730.99,767.89 712.06,794.25"/>
    <poly id="125736711" type="building.viaduct" color="255,230,230" fill="1" layer="-1.00" shape="1092.32,1104.50 1134.71,1121.22 1150.67,1126.50 1168.68,1131.39 1186.78,1134.85 1197.98,1136.65 1208.63,1137.91 1219.95,1138.74 1229.83,1139.08 1237.84,1139.02 1245.22,1138.87 1254.80,1138.71 1267.50,1137.69 1278.50,1136.27 1287.65,1134.88 1299.11,1132.70 1310.17,1130.03 1303.79,1113.08 1284.29,1117.33 1266.68,1119.69 1253.42,1120.66 1242.66,1121.01 1231.95,1121.06 1211.31,1120.15 1191.17,1117.46 1180.61,1115.46 1158.81,1110.03 1151.49,1107.52 1142.31,1104.39 1126.55,1098.33 1101.99,1087.25 1092.32,1104.50"/>
    <poly id="126128623" type="building.yes" color="255,230,230" fill="1" layer="-1.00" shape="836.82,1088.39 842.34,1098.45 844.54,1101.81 847.34,1104.75 850.18,1107.14 870.16,1121.21 862.60,1130.17 861.49,1128.65 857.57,1124.68 851.78,1118.91 835.77,1102.94 831.02,1105.81 825.90,1109.35 819.52,1099.91 836.82,1088.39"/>
    <poly id="126128623#1" type="tourism.hotel" color="207,245,201" fill="1" layer="-2.00" shape="836.82,1088.39 842.34,1098.45 844.54,1101.81 847.34,1104.75 850.18,1107.14 870.16,1121.21 862.60,1130.17 861.49,1128.65 857.57,1124.68 851.78,1118.91 835.77,1102.94 831.02,1105.81 825.90,1109.35 819.52,1099.91 836.82,1088.39"/>
    <poly id="127177463" type="landuse.grass" color="194,194,130" fill="1" layer="-3.00" shape="466.64,705.04 460.41,757.27 470.87,759.08 496.04,763.36 497.14,756.91 509.77,737.32 510.48,736.40 509.70,735.80 512.77,731.80 513.48,732.34 514.43,731.12 518.38,734.16 519.14,733.17 535.92,746.07 543.18,736.76 553.24,739.85 542.86,732.08 466.64,705.04"/>
    <poly id="127177463#1" type="leisure.garden" color="207,245,201" fill="1" layer="-2.00" shape="466.64,705.04 460.41,757.27 470.87,759.08 496.04,763.36 497.14,756.91 509.77,737.32 510.48,736.40 509.70,735.80 512.77,731.80 513.48,732.34 514.43,731.12 518.38,734.16 519.14,733.17 535.92,746.07 543.18,736.76 553.24,739.85 542.86,732.08 466.64,705.04"/>
    <poly id="127178490" type="building.yes" color="255,230,230" fill="1" layer="-1.00" shape="499.47,809.69 476.31,790.06 471.59,786.37 466.93,782.75 463.03,779.71 459.34,784.50 485.58,804.96 482.12,809.40 468.97,799.15 467.93,800.48 454.87,790.30 452.96,792.78 452.26,793.69 489.19,823.85 499.47,809.69"/>
    <poly id="127178491" type="building.yes" color="255,230,230" fill="1" layer="-1.00" shape="491.81,770.42 476.31,790.06 499.47,809.69 520.38,782.03 509.61,773.80 506.93,773.33 491.81,770.42"/>
    <poly id="127182169" type="building.yes" color="255,230,230" fill="1" layer="-1.00" shape="485.60,789.41 493.91,795.77 504.71,781.68 493.27,778.65 485.60,789.41"/>
    <poly id="128565935" type="building.residential" color="255,230,230" fill="1" layer="-1.00" shape="779.72,1047.99 780.65,1047.68 779.81,1045.16 778.80,1045.47 778.05,1043.11 785.70,1040.62 787.30,1043.70 796.20,1060.77 800.56,1073.44 788.62,1077.44 776.67,1081.44 776.11,1079.73 772.40,1068.74 772.33,1068.45 786.08,1063.89 784.60,1059.45 783.66,1059.77 779.72,1047.99"/>
    <poly id="128565938" type="building.residential" color="255,230,230" fill="1" layer="-1.00" shape="722.89,1068.45 735.06,1063.72 736.03,1066.19 739.00,1073.85 741.89,1081.26 746.35,1079.78 745.61,1077.60 752.02,1075.45 755.73,1086.53 756.31,1088.26 744.93,1092.07 733.54,1095.88 722.89,1068.45"/>
    <poly id="128565939" type="building.residential" color="255,230,230" fill="1" layer="-1.00" shape="776.67,1081.44 766.49,1084.84 756.31,1088.26 755.73,1086.53 752.02,1075.45 767.17,1070.39 759.54,1052.41 758.91,1050.71 729.19,1049.15 728.62,1047.71 726.34,1041.85 725.68,1040.16 761.17,1042.02 761.85,1043.65 763.60,1047.81 764.30,1049.46 764.95,1051.02 761.63,1050.86 769.26,1068.88 771.49,1068.14 771.73,1068.85 772.40,1068.74 776.11,1079.73 776.67,1081.44"/>
    <poly id="128565940" type="building.commercial" color="255,230,230" fill="1" layer="-1.00" shape="820.95,1048.14 801.58,1047.38 798.73,1041.94 798.75,1041.33 816.00,1042.01 815.97,1042.25 816.03,1042.50 816.17,1042.69 816.39,1042.82 816.63,1042.86 816.79,1042.83 820.95,1048.14"/>
    <poly id="130777430" type="building.residential" color="255,230,230" fill="1" layer="-1.00" shape="436.48,733.72 436.03,733.67 435.48,739.67 457.31,741.67 460.71,704.71 446.66,703.42 446.15,708.86 441.33,708.42 440.70,715.32 445.43,715.75 444.08,730.45 436.84,729.78 436.48,733.72"/>
    <poly id="131765147" type="building.yes" color="255,230,230" fill="1" layer="-1.00" shape="569.12,700.79 571.82,702.96 574.38,704.88 577.04,705.99 582.26,691.52 574.44,686.09 569.12,700.79"/>
    <poly id="131783066" type="building.yes" color="255,230,230" fill="1" layer="-1.00" shape="491.81,770.42 476.31,790.06 471.59,786.37 478.14,777.29 471.92,775.81 466.93,782.75 463.03,779.71 470.03,769.62 472.28,766.71 491.81,770.42"/>
    <poly id="131835795" type="building.yes" color="255,230,230" fill="1" layer="-1.00" shape="489.19,823.85 477.95,837.41 466.12,828.18 471.72,820.77 446.65,800.97 452.26,793.69 489.19,823.85"/>
    <poly id="131835796" type="building.yes" color="255,230,230" fill="1" layer="-1.00" shape="477.95,837.41 466.92,851.71 443.21,833.40 451.68,822.88 463.24,831.82 466.12,828.18 477.95,837.41"/>
    <poly id="133885752" type="building.roof" color="255,230,230" fill="1" layer="-1.00" shape="662.21,832.06 660.88,831.02 663.20,828.04 679.52,807.09 681.20,808.41 693.35,792.81 691.47,791.34 707.15,771.42 712.22,764.98 718.12,757.33 714.15,754.80 711.38,753.05 708.68,751.33 700.15,745.92 695.02,742.66 685.34,736.51 687.54,733.83 689.86,731.03 732.26,758.95 790.29,797.19 812.13,811.62 809.68,814.82 735.56,911.72 724.09,902.87 719.05,898.99 721.05,896.42 723.25,893.61 733.93,901.86 734.85,902.56 768.75,858.20 802.59,813.92 785.91,802.97 747.52,777.96 727.69,765.05 723.10,762.07 684.94,812.06 660.07,843.82 673.77,854.50 675.59,855.91 673.66,858.50 671.53,861.36 653.83,847.45 619.94,820.57 623.89,815.39 635.70,824.59 642.56,829.93 644.29,831.29 642.13,834.05 653.66,843.03 655.92,840.13 662.21,832.06"/>
    <poly id="133887411" type="building.yes" color="255,230,230" fill="1" layer="-1.00" shape="719.05,898.99 706.22,915.18 703.68,917.81 700.59,919.94 697.68,921.59 693.77,923.13 688.81,924.38 683.19,924.76 678.14,924.01 673.25,926.74 677.61,937.15 687.53,932.71 686.77,931.29 691.30,930.71 695.99,929.38 700.30,927.63 704.15,925.44 708.05,922.69 711.24,919.56 724.09,902.87 719.05,898.99"/>
    <poly id="137000584" type="building.residential" color="255,230,230" fill="1" layer="-1.00" shape="673.93,1378.55 677.01,1365.74 685.46,1367.94 693.72,1370.07 689.90,1388.79 684.82,1387.57 683.67,1385.57 684.68,1381.25 683.95,1379.93 683.45,1380.31 681.30,1379.77 681.42,1379.10 679.75,1379.95 673.93,1378.55"/>
    <poly id="137000585" type="building.residential" color="255,230,230" fill="1" layer="-1.00" shape="733.70,1403.48 735.32,1396.11 736.06,1396.05 735.13,1393.95 730.93,1392.80 729.53,1393.70 730.22,1394.70 729.17,1399.26 731.47,1399.78 730.69,1402.80 724.49,1401.43 729.58,1379.37 739.45,1381.92 749.33,1384.48 750.89,1387.26 746.14,1406.31 740.52,1405.05 733.70,1403.48"/>
    <poly id="137000586" type="building.residential" color="255,230,230" fill="1" layer="-1.00" shape="718.30,1400.05 719.42,1394.62 720.08,1394.45 720.61,1394.56 720.97,1393.08 721.83,1392.82 722.03,1392.06 721.31,1391.07 714.14,1389.40 712.58,1390.28 712.92,1391.33 712.56,1392.92 714.02,1393.33 712.95,1398.79 707.02,1397.39 711.26,1374.62 720.54,1377.02 729.58,1379.37 724.49,1401.43 723.03,1401.11 718.30,1400.05"/>
    <poly id="137000587" type="building.residential" color="255,230,230" fill="1" layer="-1.00" shape="689.00,1393.27 689.90,1388.79 693.72,1370.07 702.52,1372.35 711.26,1374.62 707.02,1397.39 689.00,1393.27"/>
    <poly id="137000588" type="building.residential" color="255,230,230" fill="1" layer="-1.00" shape="653.95,1384.83 659.65,1361.27 668.47,1363.54 677.01,1365.74 673.93,1378.55 672.49,1384.53 671.33,1389.24 670.79,1389.13 653.95,1384.83"/>
    <poly id="137000589" type="building.residential" color="255,230,230" fill="1" layer="-1.00" shape="664.51,1384.75 661.56,1384.02 660.78,1382.43 661.65,1378.63 661.25,1378.56 661.96,1375.49 661.63,1375.10 661.94,1373.93 668.98,1375.66 668.74,1376.91 667.99,1377.19 667.65,1379.91 666.96,1379.87 666.14,1383.81 664.51,1384.75"/>
    <poly id="137004051" type="building.hospital" color="255,230,230" fill="1" layer="-1.00" shape="607.36,1360.84 606.97,1360.04 605.72,1360.65 606.96,1363.19 605.99,1367.81 612.44,1369.16 613.45,1364.41 615.67,1363.28 615.03,1362.02 613.91,1362.60 607.36,1360.84"/>
    <poly id="137004052" type="building.residential" color="255,230,230" fill="1" layer="-1.00" shape="645.94,1391.79 649.65,1375.61 651.79,1376.15 651.46,1377.43 653.60,1377.99 652.03,1384.38 651.12,1388.11 649.96,1392.69 645.94,1391.79"/>
    <poly id="137004053" type="building.residential" color="255,230,230" fill="1" layer="-1.00" shape="700.22,1393.01 696.77,1392.16 695.60,1390.95 696.97,1384.94 696.21,1384.28 696.50,1383.13 697.82,1383.41 698.25,1384.21 701.63,1385.07 702.43,1384.50 703.58,1384.88 703.50,1385.91 702.76,1386.20 701.44,1392.22 700.22,1393.01"/>
    <poly id="137004054" type="building.hospital" color="255,230,230" fill="1" layer="-1.00" shape="618.39,1367.58 622.39,1351.49 655.72,1360.26 659.65,1361.27 653.95,1384.83 652.03,1384.38 653.60,1377.99 651.46,1377.43 651.79,1376.15 649.65,1375.61 622.34,1368.65 618.39,1367.58"/>
    <poly id="137004057" type="building.hospital" color="255,230,230" fill="1" layer="-1.00" shape="587.27,1359.68 586.96,1360.91 583.06,1359.94 587.30,1342.83 595.82,1344.94 604.68,1347.12 600.75,1363.00 591.81,1360.79 587.27,1359.68"/>
    <poly id="137085435" type="building.hospital" color="255,230,230" fill="1" layer="-1.00" shape="651.12,1388.11 652.03,1384.38 653.95,1384.83 670.79,1389.13 712.95,1398.79 718.30,1400.05 723.03,1401.11 722.20,1404.36 651.12,1388.11"/>
    <poly id="137085441" type="building.yes" color="255,230,230" fill="1" layer="-1.00" shape="528.55,1364.25 514.75,1423.28 542.41,1430.11 556.73,1370.81 528.55,1364.25"/>
    <poly id="145662520" type="waterway.canal" color="181,209,209" fill="0" layer="-4.00" shape="649.72,698.09 629.44,724.22 582.58,762.96 528.82,828.19 482.08,884.06 472.33,896.17 417.95,961.35 397.79,986.01 353.04,1041.85"/>
    <poly id="147686949" type="building.residential" color="255,230,230" fill="1" layer="-1.00" shape="1393.85,1369.40 1391.32,1359.11 1378.78,1363.52 1359.82,1368.99 1362.55,1378.99 1364.36,1378.54 1371.44,1376.23 1370.36,1371.22 1380.44,1368.15 1382.02,1372.60 1393.85,1369.40"/>
    <poly id="147686950" type="building.residential" color="255,230,230" fill="1" layer="-1.00" shape="993.54,1237.41 971.67,1245.43 970.10,1240.96 992.09,1233.12 993.54,1237.41"/>
    <poly id="147686951" type="building.apartments" color="255,230,230" fill="1" layer="-1.00" shape="970.10,1240.96 971.67,1245.43 964.49,1247.78 957.28,1250.43 950.22,1252.81 944.54,1254.93 943.38,1250.22 946.02,1249.23 970.10,1240.96"/>
    <poly id="147686953" type="building.residential" color="255,230,230" fill="1" layer="-1.00" shape="1045.84,1302.93 1041.90,1294.59 1031.51,1298.09 1032.53,1300.90 1031.07,1303.52 1032.04,1306.77 1045.84,1302.93"/>
    <poly id="147686957" type="building.residential" color="255,230,230" fill="1" layer="-1.00" shape="1086.55,1121.01 1078.35,1117.93 1075.60,1118.05 1072.57,1118.86 1066.70,1123.28 1074.47,1132.69 1076.48,1131.37 1081.87,1131.69 1086.55,1121.01"/>
    <poly id="147686963" type="building.residential" color="255,230,230" fill="1" layer="-1.00" shape="1016.11,1224.58 1019.29,1232.52 1019.99,1234.15 1009.02,1237.94 1008.43,1236.36 1007.28,1232.54 993.54,1237.41 992.09,1233.12 1016.11,1224.58"/>
    <poly id="147686966" type="building.residential" color="255,230,230" fill="1" layer="-1.00" shape="898.72,1175.94 900.35,1175.87 911.81,1175.86 913.30,1188.96 913.27,1201.84 913.42,1216.49 899.93,1217.01 899.95,1202.21 907.64,1202.04 907.32,1190.41 901.29,1190.53 899.46,1190.47 898.72,1175.94"/>
    <poly id="148392919" type="building.residential" color="255,230,230" fill="1" layer="-1.00" shape="1216.31,1350.10 1221.59,1346.35 1233.29,1338.07 1240.34,1351.40 1225.19,1362.17 1216.31,1350.10"/>
    <poly id="154321042" type="building.yes" color="255,230,230" fill="1" layer="-1.00" shape="772.06,1168.57 788.47,1167.07 783.95,1153.45 770.51,1161.82 772.06,1168.57"/>
    <poly id="159534658" type="waterway.river" color="181,209,209" fill="0" layer="-4.00" shape="1432.15,170.05 1399.69,174.67 1341.44,198.80 1289.46,213.36 1236.16,251.89 1198.19,290.72 1161.45,331.80 1112.87,400.66 1091.90,434.12 997.84,593.90 980.13,625.02 949.84,674.77 922.33,725.68 890.88,775.14 853.16,824.19 840.11,844.05 823.84,869.40 801.08,893.36 763.57,920.98 696.14,949.84 656.53,965.19 608.75,984.61 534.13,1014.01 444.64,1029.67 426.57,1031.61 353.04,1041.85 265.58,1054.57 231.16,1052.40 116.26,1041.75 95.28,1039.23 37.33,1028.99 13.01,1018.85 -58.69,953.22 -127.37,893.19 -164.19,860.68 -191.27,836.50 -229.74,809.75 -288.67,779.93 -384.32,736.20 -479.63,707.83 -517.75,706.67 -564.17,705.37 -591.22,709.62 -612.14,712.89 -632.98,719.46 -653.32,727.67 -677.02,740.16 -695.78,751.30 -714.31,764.85 -731.80,779.60 -751.63,802.28 -760.50,819.74 -761.90,823.66 -767.46,838.46 -770.23,850.76 -771.77,863.14 -772.41,872.15 -775.95,906.10 -779.75,931.23 -785.86,959.75 -796.65,983.20 -804.43,1000.26 -810.91,1009.19 -815.08,1015.34 -828.90,1031.33 -847.77,1051.48 -869.79,1068.74 -899.21,1092.12 -931.69,1111.48 -965.39,1128.47 -992.59,1137.13 -1021.38,1143.19 -1053.64,1148.04"/>
    <poly id="15968753" type="building.yes" color="255,230,230" fill="1" layer="-1.00" shape="716.65,661.70 689.20,707.93 763.61,752.06 767.90,745.02 768.62,743.84 791.42,706.34 768.73,692.76 754.56,684.27 740.25,675.75 716.65,661.70"/>
    <poly id="15968753#1" type="tourism.museum" color="207,245,201" fill="1" layer="-2.00" shape="716.65,661.70 689.20,707.93 763.61,752.06 767.90,745.02 768.62,743.84 791.42,706.34 768.73,692.76 754.56,684.27 740.25,675.75 716.65,661.70"/>
    <poly id="15968754" type="building.yes" color="255,230,230" fill="1" layer="-1.00" shape="709.96,698.00 709.19,697.55 716.82,684.57 717.74,685.11 718.28,684.20 730.47,691.32 730.00,692.11 730.78,692.58 728.58,696.32 724.23,693.77 720.88,699.47 724.96,701.86 722.90,705.38 721.97,704.84 721.41,705.79 709.48,698.81 709.96,698.00"/>
    <poly id="15968754#1" type="tourism.museum" color="207,245,201" fill="1" layer="-2.00" shape="709.96,698.00 709.19,697.55 716.82,684.57 717.74,685.11 718.28,684.20 730.47,691.32 730.00,692.11 730.78,692.58 728.58,696.32 724.23,693.77 720.88,699.47 724.96,701.86 722.90,705.38 721.97,704.84 721.41,705.79 709.48,698.81 709.96,698.00"/>
    <poly id="15968756" type="building.yes" color="255,230,230" fill="1" layer="-1.00" shape="749.62,723.29 750.27,722.23 749.42,721.73 751.74,717.90 755.35,720.07 758.91,714.21 755.35,712.05 757.42,708.63 758.33,709.17 758.95,708.14 770.77,715.27 770.35,715.97 771.23,716.49 762.83,730.34 761.99,729.84 761.59,730.50 749.62,723.29"/>
    <poly id="15968756#1" type="tourism.museum" color="207,245,201" fill="1" layer="-2.00" shape="749.62,723.29 750.27,722.23 749.42,721.73 751.74,717.90 755.35,720.07 758.91,714.21 755.35,712.05 757.42,708.63 758.33,709.17 758.95,708.14 770.77,715.27 770.35,715.97 771.23,716.49 762.83,730.34 761.99,729.84 761.59,730.50 749.62,723.29"/>
    <poly id="159958500" type="building.commercial" color="255,230,230" fill="1" layer="-1.00" shape="1533.85,827.29 1567.18,785.73 1569.14,787.10 1570.76,785.29 1589.71,802.07 1614.42,820.47 1612.51,822.95 1578.52,867.08 1564.53,854.83 1532.45,833.02 1535.48,828.69 1533.85,827.29"/>
    <poly id="16000014" type="leisure.park" color="207,245,201" fill="1" layer="-2.00" shape="708.20,656.67 716.65,661.70 740.25,675.75 754.56,684.27 768.73,692.76 791.42,706.34 799.61,711.21 874.17,585.53 782.73,532.25 708.20,656.67"/>
    <poly id="161907951" type="man_made.bridge" color="255,230,230" fill="1" layer="-1.00" shape="1482.89,1001.32 1457.20,1022.67 1460.52,1025.27 1465.16,1028.87 1469.64,1032.53 1472.84,1034.99 1475.67,1038.14 1504.46,1017.20 1501.98,1015.45 1497.09,1011.92 1493.02,1008.94 1485.65,1003.35 1482.89,1001.32"/>
    <poly id="162018681" type="building.residential" color="255,230,230" fill="1" layer="-1.00" shape="840.17,1143.82 841.43,1146.79 840.91,1147.18 841.56,1149.72 849.63,1149.43 868.23,1148.93 868.03,1146.27 867.56,1146.26 866.42,1142.73 863.24,1142.67 860.58,1138.84 856.31,1132.86 844.08,1141.76 843.24,1142.35 843.05,1142.11 840.17,1143.82"/>
    <poly id="165015473" type="amenity.theatre" color="237,199,199" fill="1" layer="-1.00" shape="487.89,1127.34 481.64,1106.88 462.45,1112.71 453.58,1083.67 475.19,1077.09 480.87,1095.69 501.51,1089.43 501.67,1089.97 510.95,1120.33 491.20,1126.33 487.89,1127.34"/>
    <poly id="165832995" type="leisure.playground" color="207,245,201" fill="1" layer="-2.00" shape="1198.54,1243.10 1204.75,1243.26 1205.09,1230.57 1198.88,1230.40 1198.54,1243.10"/>
    <poly id="16603261" type="landuse.grass" color="194,194,130" fill="1" layer="-3.00" shape="1330.42,862.31 1332.69,863.94 1333.70,864.17 1334.72,864.19 1335.69,863.93 1336.44,863.20 1351.16,843.75 1351.36,842.37 1351.01,841.08 1350.25,840.24 1349.18,839.80 1307.04,836.91 1305.54,837.36 1304.64,838.32 1304.13,839.78 1304.95,841.72 1330.42,862.31"/>
    <poly id="166695111" type="building.residential" color="255,230,230" fill="1" layer="-1.00" shape="1398.21,1315.47 1393.97,1300.46 1421.90,1292.96 1423.75,1300.71 1412.60,1303.30 1412.33,1302.45 1408.80,1303.23 1408.30,1301.39 1406.79,1301.77 1407.11,1302.94 1407.65,1303.50 1410.03,1312.77 1398.21,1315.47"/>
    <poly id="166695113" type="building.residential" color="255,230,230" fill="1" layer="-1.00" shape="1418.98,1281.26 1417.85,1276.88 1415.09,1265.81 1420.73,1264.60 1422.96,1274.74 1425.75,1273.92 1426.04,1273.07 1431.12,1271.68 1431.52,1271.34 1429.05,1260.01 1429.43,1259.88 1441.63,1256.51 1441.93,1257.76 1442.98,1257.52 1443.74,1260.75 1442.68,1261.01 1444.54,1268.89 1445.60,1268.64 1446.36,1271.88 1445.31,1272.12 1445.60,1273.38 1428.56,1278.45 1418.98,1281.26"/>
    <poly id="166695114" type="building.residential" color="255,230,230" fill="1" layer="-1.00" shape="1421.90,1292.96 1420.39,1286.88 1430.02,1284.19 1428.56,1278.45 1445.60,1273.38 1446.04,1275.24 1446.79,1276.51 1447.40,1277.90 1447.85,1279.39 1448.11,1280.91 1448.18,1282.42 1448.07,1283.88 1448.50,1285.71 1433.96,1289.69 1421.90,1292.96"/>
    <poly id="16872940" type="leisure.park" color="207,245,201" fill="1" layer="-2.00" shape="1090.34,592.59 1091.93,611.36 1099.58,628.81 1127.17,642.11 1142.89,642.75 1153.99,638.38 1184.62,646.92 1200.57,648.71 1217.16,661.87 1152.92,728.92 1136.99,727.83 1080.60,687.03 1033.48,648.80 1018.55,639.13 1008.58,629.48 1005.94,625.77 1005.22,618.32 1016.01,599.26 1015.64,598.32 1034.01,564.98 1032.67,564.25 1034.60,560.71 1035.94,561.44 1042.43,549.54 1094.22,463.14 1100.78,453.34 1194.50,513.44 1167.80,546.15 1147.58,538.60 1111.19,543.82 1090.34,592.59"/>
    <poly id="16873207" type="leisure.park" color="207,245,201" fill="1" layer="-2.00" shape="779.67,770.01 819.24,796.08 831.22,799.22 838.69,793.34 880.07,757.18 884.21,751.03 815.66,711.43 779.67,770.01"/>
    <poly id="169988289" type="leisure.pitch" color="207,245,201" fill="1" layer="-2.00" shape="689.03,1070.88 699.19,1066.95 697.93,1063.68 687.76,1067.61 689.03,1070.88"/>
    <poly id="169988289#1" type="sport.table_tennis" color="79,230,125" fill="1" layer="-2.00" shape="689.03,1070.88 699.19,1066.95 697.93,1063.68 687.76,1067.61 689.03,1070.88"/>
    <poly id="170013760" type="building.yes" color="255,230,230" fill="1" layer="-1.00" shape="909.74,1161.11 920.57,1160.51 920.42,1155.32 907.42,1146.16 902.96,1148.08 903.37,1148.69 908.19,1153.69 909.74,1161.11"/>