<?xml version="1.0"?>
<!-- generated on 2017-10-26 09:43:22.777036 by $Id: randomTrips.py 23999 2017-04-21 09:04:47Z behrisch $
  options: -n Griglia.net.xml -o Griglia.trips.xml
-->
<routes xmlns:xsi="http://www.w3.org/2001/XMLSchema-instance" xsi:noNamespaceSchemaLocation="http://sumo.dlr.de/xsd/routes_file.xsd">
	<vType id="car" accel="0.8" decel="4.5" sigma="0.5" length="4" maxSpeed="50"/>

	<trip id="0" depart="0.00" departPos="1" from="1to2" to="1to2" type="car"/>
	<trip id="1" depart="0.00" departPos="251" from="1to2" to="1to2" type="car"/>
	<trip id="2" depart="0.00" departPos="201" from="2to3" to="2to3" type="car"/>
	<trip id="3" depart="0.00" departPos="151" from="3to4" to="3to4" type="car"/>
	<trip id="4" depart="0.00" departPos="101" from="4to5" to="4to5" type="car"/>
	<trip id="5" depart="0.00" departPos="51" from="5to6" to="5to6" type="car"/>
	<trip id="6" depart="0.00" departPos="1" from="6to7" to="6to7" type="car"/>
	<trip id="7" depart="0.00" departPos="251" from="6to7" to="6to7" type="car"/>
	<trip id="8" depart="0.00" departPos="201" from="7to8" to="7to8" type="car"/>
	<trip id="9" depart="0.00" departPos="151" from="8to9" to="8to9" type="car"/>
	<trip id="10" depart="0.00" departPos="101" from="9to10" to="9to10" type="car"/>
	<trip id="11" depart="0.00" departPos="51" from="10to11" to="10to11" type="car"/>
	<trip id="12" depart="0.00" departPos="1" from="11to12" to="11to12" type="car"/>
	<trip id="13" depart="0.00" departPos="251" from="11to12" to="11to12" type="car"/>
	<trip id="14" depart="0.00" departPos="201" from="12to13" to="12to13" type="car"/>
	<trip id="15" depart="0.00" departPos="1" from="182to183" to="182to183" type="car"/>
	<trip id="16" depart="0.00" departPos="251" from="182to183" to="182to183" type="car"/>
	<trip id="17" depart="0.00" departPos="209" from="gneE2" to="gneE2" type="car"/>
	<trip id="18" depart="0.00" departPos="166" from="169to170" to="169to170" type="car"/>
	<trip id="19" depart="0.00" departPos="123" from="gneE6" to="gneE6" type="car"/>
	<trip id="20" depart="0.00" departPos="80" from="gneE16" to="gneE16" type="car"/>
	<trip id="21" depart="0.00" departPos="37" from="142to143" to="142to143" type="car"/>
	<trip id="22" depart="0.00" departPos="287" from="142to143" to="142to143" type="car"/>
	<trip id="23" depart="0.00" departPos="244" from="143to144" to="143to144" type="car"/>
	<trip id="24" depart="0.00" departPos="197" from="gneE22" to="gneE22" type="car"/>
	<trip id="25" depart="0.00" departPos="154" from="158to159" to="158to159" type="car"/>
	<trip id="26" depart="0.00" departPos="109" from="159to160" to="159to160" type="car"/>
	<trip id="27" depart="0.00" departPos="59" from="160to161" to="160to161" type="car"/>
	<trip id="28" depart="0.00" departPos="9" from="161to162" to="161to162" type="car"/>
	<trip id="29" depart="0.00" departPos="259" from="161to162" to="161to162" type="car"/>
	<trip id="30" depart="0.00" departPos="209" from="162to163" to="162to163" type="car"/>
	<trip id="31" depart="0.00" departPos="159" from="163to164" to="163to164" type="car"/>
	<trip id="32" depart="0.00" departPos="109" from="164to165" to="164to165" type="car"/>
	<trip id="33" depart="0.00" departPos="59" from="165to166" to="165to166" type="car"/>
	<trip id="34" depart="0.00" departPos="197" from="144to145" to="144to145" type="car"/>
	<trip id="35" depart="0.00" departPos="152" from="145to146" to="145to146" type="car"/>
	<trip id="36" depart="0.00" departPos="102" from="146to147" to="146to147" type="car"/>
	<trip id="37" depart="0.00" departPos="52" from="147to148" to="147to148" type="car"/>
	<trip id="38" depart="0.00" departPos="2" from="148to149" to="148to149" type="car"/>
	<trip id="39" depart="0.00" departPos="252" from="148to149" to="148to149" type="car"/>
	<trip id="40" depart="0.00" departPos="202" from="149to150" to="149to150" type="car"/>
	<trip id="41" depart="0.00" departPos="152" from="150to151" to="150to151" type="car"/>
	<trip id="42" depart="0.00" departPos="102" from="151to152" to="151to152" type="car"/>
	<trip id="43" depart="0.00" departPos="80" from="156to157" to="156to157" type="car"/>
	<trip id="44" depart="0.00" departPos="37" from="gneE21" to="gneE21" type="car"/>
	<trip id="45" depart="0.00" departPos="287" from="gneE21" to="gneE21" type="car"/>
	<trip id="46" depart="0.00" departPos="37" from="157to158" to="157to158" type="car"/>
	<trip id="47" depart="0.00" departPos="287" from="157to158" to="157to158" type="car"/>
	<trip id="48" depart="0.00" departPos="123" from="170to171" to="170to171" type="car"/>
	<trip id="49" depart="0.00" departPos="80" from="171to172" to="171to172" type="car"/>
	<trip id="50" depart="0.00" departPos="37" from="gneE23" to="gneE23" type="car"/>
	<trip id="51" depart="0.00" departPos="287" from="gneE23" to="gneE23" type="car"/>
	<trip id="52" depart="0.00" departPos="37" from="172to173" to="172to173" type="car"/>
	<trip id="53" depart="0.00" departPos="287" from="172to173" to="172to173" type="car"/>
	<trip id="54" depart="0.00" departPos="239" from="173to174" to="173to174" type="car"/>
	<trip id="55" depart="0.00" departPos="189" from="174to175" to="174to175" type="car"/>
	<trip id="56" depart="0.00" departPos="139" from="175to176" to="175to176" type="car"/>
	<trip id="57" depart="0.00" departPos="89" from="176to177" to="176to177" type="car"/>
	<trip id="58" depart="0.00" departPos="39" from="177to178" to="177to178" type="car"/>
	<trip id="59" depart="0.00" departPos="289" from="177to178" to="177to178" type="car"/>
	<trip id="60" depart="0.00" departPos="239" from="178to179" to="178to179" type="car"/>
	<trip id="61" depart="0.00" departPos="189" from="179to180" to="179to180" type="car"/>
	<trip id="62" depart="0.00" departPos="80" from="gneE12" to="gneE12" type="car"/>
	<trip id="63" depart="0.00" departPos="166" from="gneE7" to="gneE7" type="car"/>
	<trip id="64" depart="0.00" departPos="123" from="155to156" to="155to156" type="car"/>
	<trip id="65" depart="0.00" departPos="123" from="gneE14" to="gneE14" type="car"/>
	<trip id="66" depart="0.00" departPos="80" from="141to142" to="141to142" type="car"/>
	<trip id="67" depart="0.00" departPos="209" from="183to184" to="183to184" type="car"/>
	<trip id="68" depart="0.00" departPos="166" from="gneE4" to="gneE4" type="car"/>
	<trip id="69" depart="0.00" departPos="166" from="184to185" to="184to185" type="car"/>
	<trip id="70" depart="0.00" departPos="123" from="185to186" to="185to186" type="car"/>
	<trip id="71" depart="0.00" departPos="80" from="186to187" to="186to187" type="car"/>
	<trip id="72" depart="0.00" departPos="32" from="187to188" to="187to188" type="car"/>
	<trip id="73" depart="0.00" departPos="282" from="187to188" to="187to188" type="car"/>
	<trip id="74" depart="0.00" departPos="232" from="188to189" to="188to189" type="car"/>
	<trip id="75" depart="0.00" departPos="182" from="189to190" to="189to190" type="car"/>
	<trip id="76" depart="0.00" departPos="132" from="190to191" to="190to191" type="car"/>
	<trip id="77" depart="0.00" departPos="82" from="191to192" to="191to192" type="car"/>
	<trip id="78" depart="0.00" departPos="32" from="192to193" to="192to193" type="car"/>
	<trip id="79" depart="0.00" departPos="282" from="192to193" to="192to193" type="car"/>
	<trip id="80" depart="0.00" departPos="232" from="193to194" to="193to194" type="car"/>
	<trip id="81" depart="0.00" departPos="80" from="gneE19" to="gneE19" type="car"/>
	<trip id="82" depart="0.00" departPos="123" from="gneE9" to="gneE9" type="car"/>
	<trip id="83" depart="0.00" departPos="1" from="100to101" to="100to101" type="car"/>
	<trip id="84" depart="0.00" departPos="251" from="100to101" to="100to101" type="car"/>
	<trip id="85" depart="0.00" departPos="201" from="101to102" to="101to102" type="car"/>
	<trip id="86" depart="0.00" departPos="151" from="102to103" to="102to103" type="car"/>
	<trip id="87" depart="0.00" departPos="101" from="103to104" to="103to104" type="car"/>
	<trip id="88" depart="0.00" departPos="51" from="104to105" to="104to105" type="car"/>
	<trip id="89" depart="0.00" departPos="1" from="105to106" to="105to106" type="car"/>
	<trip id="90" depart="0.00" departPos="251" from="105to106" to="105to106" type="car"/>
	<trip id="91" depart="0.00" departPos="201" from="106to107" to="106to107" type="car"/>
	<trip id="92" depart="0.00" departPos="151" from="107to108" to="107to108" type="car"/>
	<trip id="93" depart="0.00" departPos="101" from="108to109" to="108to109" type="car"/>
	<trip id="94" depart="0.00" departPos="51" from="109to110" to="109to110" type="car"/>
	<trip id="95" depart="0.00" departPos="1" from="113to114" to="113to114" type="car"/>
	<trip id="96" depart="0.00" departPos="251" from="113to114" to="113to114" type="car"/>
	<trip id="97" depart="0.00" departPos="201" from="114to115" to="114to115" type="car"/>
	<trip id="98" depart="0.00" departPos="151" from="115to116" to="115to116" type="car"/>
	<trip id="99" depart="0.00" departPos="101" from="116to117" to="116to117" type="car"/>
	<trip id="100" depart="0.00" departPos="51" from="117to118" to="117to118" type="car"/>
	<trip id="101" depart="0.00" departPos="1" from="118to119" to="118to119" type="car"/>
	<trip id="102" depart="0.00" departPos="251" from="118to119" to="118to119" type="car"/>
	<trip id="103" depart="0.00" departPos="201" from="119to120" to="119to120" type="car"/>
	<trip id="104" depart="0.00" departPos="151" from="120to121" to="120to121" type="car"/>
	<trip id="105" depart="0.00" departPos="101" from="121to122" to="121to122" type="car"/>
	<trip id="106" depart="0.00" departPos="51" from="122to123" to="122to123" type="car"/>
	<trip id="107" depart="0.00" departPos="1" from="123to124" to="123to124" type="car"/>
	<trip id="108" depart="0.00" departPos="251" from="123to124" to="123to124" type="car"/>
	<trip id="109" depart="0.00" departPos="1" from="127to128" to="127to128" type="car"/>
	<trip id="110" depart="0.00" departPos="251" from="127to128" to="127to128" type="car"/>
	<trip id="111" depart="0.00" departPos="201" from="128to129" to="128to129" type="car"/>
	<trip id="112" depart="0.00" departPos="151" from="129to130" to="129to130" type="car"/>
	<trip id="113" depart="0.00" departPos="101" from="130to131" to="130to131" type="car"/>
	<trip id="114" depart="0.00" departPos="51" from="131to132" to="131to132" type="car"/>
	<trip id="115" depart="0.00" departPos="1" from="132to133" to="132to133" type="car"/>
	<trip id="116" depart="0.00" departPos="251" from="132to133" to="132to133" type="car"/>
	<trip id="117" depart="0.00" departPos="201" from="133to134" to="133to134" type="car"/>
	<trip id="118" depart="0.00" departPos="151" from="134to135" to="134to135" type="car"/>
	<trip id="119" depart="0.00" departPos="101" from="135to136" to="135to136" type="car"/>
	<trip id="120" depart="0.00" departPos="51" from="136to137" to="136to137" type="car"/>
	<trip id="121" depart="0.00" departPos="1" from="137to138" to="137to138" type="car"/>
	<trip id="122" depart="0.00" departPos="251" from="137to138" to="137to138" type="car"/>
	<trip id="123" depart="0.00" departPos="1" from="15to16" to="15to16" type="car"/>
	<trip id="124" depart="0.00" departPos="251" from="15to16" to="15to16" type="car"/>
	<trip id="125" depart="0.00" departPos="201" from="16to17" to="16to17" type="car"/>
	<trip id="126" depart="0.00" departPos="151" from="17to18" to="17to18" type="car"/>
	<trip id="127" depart="0.00" departPos="101" from="18to19" to="18to19" type="car"/>
	<trip id="128" depart="0.00" departPos="51" from="19to20" to="19to20" type="car"/>
	<trip id="129" depart="0.00" departPos="1" from="20to21" to="20to21" type="car"/>
	<trip id="130" depart="0.00" departPos="251" from="20to21" to="20to21" type="car"/>
	<trip id="131" depart="0.00" departPos="201" from="21to22" to="21to22" type="car"/>
	<trip id="132" depart="0.00" departPos="151" from="22to23" to="22to23" type="car"/>
	<trip id="133" depart="0.00" departPos="101" from="23to24" to="23to24" type="car"/>
	<trip id="134" depart="0.00" departPos="51" from="24to25" to="24to25" type="car"/>
	<trip id="135" depart="0.00" departPos="1" from="25to26" to="25to26" type="car"/>
	<trip id="136" depart="0.00" departPos="251" from="25to26" to="25to26" type="car"/>
	<trip id="137" depart="0.00" departPos="1" from="29to30" to="29to30" type="car"/>
	<trip id="138" depart="0.00" departPos="251" from="29to30" to="29to30" type="car"/>
	<trip id="139" depart="0.00" departPos="201" from="30to31" to="30to31" type="car"/>
	<trip id="140" depart="0.00" departPos="151" from="31to32" to="31to32" type="car"/>
	<trip id="141" depart="0.00" departPos="101" from="32to33" to="32to33" type="car"/>
	<trip id="142" depart="0.00" departPos="51" from="33to34" to="33to34" type="car"/>
	<trip id="143" depart="0.00" departPos="1" from="34to35" to="34to35" type="car"/>
	<trip id="144" depart="0.00" departPos="251" from="34to35" to="34to35" type="car"/>
	<trip id="145" depart="0.00" departPos="201" from="35to36" to="35to36" type="car"/>
	<trip id="146" depart="0.00" departPos="151" from="36to37" to="36to37" type="car"/>
	<trip id="147" depart="0.00" departPos="101" from="37to38" to="37to38" type="car"/>
	<trip id="148" depart="0.00" departPos="51" from="38to39" to="38to39" type="car"/>
	<trip id="149" depart="0.00" departPos="1" from="39to40" to="39to40" type="car"/>
	<trip id="150" depart="0.00" departPos="251" from="39to40" to="39to40" type="car"/>
	<trip id="151" depart="0.00" departPos="1" from="43to44" to="43to44" type="car"/>
	<trip id="152" depart="0.00" departPos="251" from="43to44" to="43to44" type="car"/>
	<trip id="153" depart="0.00" departPos="201" from="44to45" to="44to45" type="car"/>
	<trip id="154" depart="0.00" departPos="151" from="45to46" to="45to46" type="car"/>
	<trip id="155" depart="0.00" departPos="101" from="46to47" to="46to47" type="car"/>
	<trip id="156" depart="0.00" departPos="51" from="47to48" to="47to48" type="car"/>
	<trip id="157" depart="0.00" departPos="1" from="48to49" to="48to49" type="car"/>
	<trip id="158" depart="0.00" departPos="251" from="48to49" to="48to49" type="car"/>
	<trip id="159" depart="0.00" departPos="201" from="49to50" to="49to50" type="car"/>
	<trip id="160" depart="0.00" departPos="151" from="50to51" to="50to51" type="car"/>
	<trip id="161" depart="0.00" departPos="101" from="51to52" to="51to52" type="car"/>
	<trip id="162" depart="0.00" departPos="51" from="52to53" to="52to53" type="car"/>
	<trip id="163" depart="0.00" departPos="1" from="53to54" to="53to54" type="car"/>
	<trip id="164" depart="0.00" departPos="251" from="53to54" to="53to54" type="car"/>
	<trip id="165" depart="0.00" departPos="1" from="57to58" to="57to58" type="car"/>
	<trip id="166" depart="0.00" departPos="251" from="57to58" to="57to58" type="car"/>
	<trip id="167" depart="0.00" departPos="201" from="58to59" to="58to59" type="car"/>
	<trip id="168" depart="0.00" departPos="151" from="59to60" to="59to60" type="car"/>
	<trip id="169" depart="0.00" departPos="101" from="60to61" to="60to61" type="car"/>
	<trip id="170" depart="0.00" departPos="51" from="61to62" to="61to62" type="car"/>
	<trip id="171" depart="0.00" departPos="1" from="62to63" to="62to63" type="car"/>
	<trip id="172" depart="0.00" departPos="251" from="62to63" to="62to63" type="car"/>
	<trip id="173" depart="0.00" departPos="201" from="63to64" to="63to64" type="car"/>
	<trip id="174" depart="0.00" departPos="151" from="64to65" to="64to65" type="car"/>
	<trip id="175" depart="0.00" departPos="101" from="65to66" to="65to66" type="car"/>
	<trip id="176" depart="0.00" departPos="51" from="66to67" to="66to67" type="car"/>
	<trip id="177" depart="0.00" departPos="1" from="67to68" to="67to68" type="car"/>
	<trip id="178" depart="0.00" departPos="251" from="67to68" to="67to68" type="car"/>
	<trip id="179" depart="0.00" departPos="1" from="71to72" to="71to72" type="car"/>
	<trip id="180" depart="0.00" departPos="251" from="71to72" to="71to72" type="car"/>
	<trip id="181" depart="0.00" departPos="201" from="72to73" to="72to73" type="car"/>
	<trip id="182" depart="0.00" departPos="151" from="73to74" to="73to74" type="car"/>
	<trip id="183" depart="0.00" departPos="101" from="74to75" to="74to75" type="car"/>
	<trip id="184" depart="0.00" departPos="51" from="75to76" to="75to76" type="car"/>
	<trip id="185" depart="0.00" departPos="1" from="76to77" to="76to77" type="car"/>
	<trip id="186" depart="0.00" departPos="251" from="76to77" to="76to77" type="car"/>
	<trip id="187" depart="0.00" departPos="201" from="77to78" to="77to78" type="car"/>
	<trip id="188" depart="0.00" departPos="151" from="78to79" to="78to79" type="car"/>
	<trip id="189" depart="0.00" departPos="101" from="79to80" to="79to80" type="car"/>
	<trip id="190" depart="0.00" departPos="51" from="80to81" to="80to81" type="car"/>
	<trip id="191" depart="0.00" departPos="1" from="81to82" to="81to82" type="car"/>
	<trip id="192" depart="0.00" departPos="251" from="81to82" to="81to82" type="car"/>
	<trip id="193" depart="0.00" departPos="1" from="85to86" to="85to86" type="car"/>
	<trip id="194" depart="0.00" departPos="251" from="85to86" to="85to86" type="car"/>
	<trip id="195" depart="0.00" departPos="201" from="86to87" to="86to87" type="car"/>
	<trip id="196" depart="0.00" departPos="151" from="87to88" to="87to88" type="car"/>
	<trip id="197" depart="0.00" departPos="101" from="88to89" to="88to89" type="car"/>
	<trip id="198" depart="0.00" departPos="51" from="89to90" to="89to90" type="car"/>
	<trip id="199" depart="0.00" departPos="1" from="90to91" to="90to91" type="car"/>
	<trip id="200" depart="0.00" departPos="251" from="90to91" to="90to91" type="car"/>
	<trip id="201" depart="0.00" departPos="201" from="91to92" to="91to92" type="car"/>
	<trip id="202" depart="0.00" departPos="151" from="92to93" to="92to93" type="car"/>
	<trip id="203" depart="0.00" departPos="101" from="93to94" to="93to94" type="car"/>
	<trip id="204" depart="0.00" departPos="51" from="94to95" to="94to95" type="car"/>
	<trip id="205" depart="0.00" departPos="1" from="95to96" to="95to96" type="car"/>
	<trip id="206" depart="0.00" departPos="251" from="95to96" to="95to96" type="car"/>
	<trip id="207" depart="0.00" departPos="1" from="99to100" to="99to100" type="car"/>
	<trip id="208" depart="0.00" departPos="251" from="99to100" to="99to100" type="car"/>
</routes>
