<?xml version="1.0" encoding="UTF-8"?>

<!-- generated on Sat Dec  8 18:24:50 2018 by SUMO duarouter Version 0.30.0
<?xml version="1.0" encoding="UTF-8"?>

<configuration xmlns:xsi="http://www.w3.org/2001/XMLSchema-instance" xsi:noNamespaceSchemaLocation="http://sumo.dlr.de/xsd/duarouterConfiguration.xsd">

    <input>
        <net-file value="osm.net.xml"/>
        <trip-files value="osm.passenger.trips.xml"/>
    </input>

    <output>
        <output-file value="osm.passenger.rou.xml"/>
    </output>

    <processing>
        <ignore-errors value="true"/>
    </processing>

    <time>
        <begin value="0"/>
        <end value="3600.0"/>
    </time>

    <report>
        <no-warnings value="true"/>
        <no-step-log value="true"/>
    </report>

</configuration>
-->

<routes xmlns:xsi="http://www.w3.org/2001/XMLSchema-instance" xsi:noNamespaceSchemaLocation="http://sumo.dlr.de/xsd/routes_file.xsd">
    <vType id="passenger" vClass="passenger"/>
    <vehicle id="veh0" type="passenger" depart="0.00" departLane="best">
        <route edges="24914992#0 24914992#1 171826985#1 171826985#3 171826985#5 -534588621#1 -534588621#0 606078071#0 -562707499 -136571494#5 -136571494#3"/>
    </vehicle>
    <vehicle id="veh1" type="passenger" depart="17.79" departLane="best">
        <route edges="340498976#10 83517339 -4610480 4610600 15971189 339201177#1 339201177#2 339201177#3 339201177#4 23121445#0 23121445#1 23121445#2 23121445#3 23121445#4 23121445#5 54048862#3 23013165#1 23013165#2 4611698#1 202156994#0 4773465#0 4773465#1 4773465#2 4773465#3 490365295#1 490365295#3 -156364570#4 -156364570#3 -156364570#1 -156364570#0 -387892378 -478396988 -370359204#0 -316746323#2 -316746323#0 -84960595 183415643 46140378 46140382 30721660#1 30721660#2 30721660#3 30721660#4 30721660#5 4610362#0 4610362#1 4610362#2 4610362#3 4610362#4 4610362#5 4610362#6 4610362#7 4610362#8 30721662#0"/>
    </vehicle>
    <vehicle id="veh3" type="passenger" depart="53.38" departLane="best">
        <route edges="156364553#0 156364553#1 72157172 61583424#1 534588621#0 534588621#1 24913519#1 24913519#2 541763975 202156995#0 202156995#1 4067932#1 541763974 61584187#1 61584187#2 61584187#3 61584187#4 54048863 15971197#1 4611699 169195795#0 169195795#1 169195795#2 169195795#4 169195795#5 114667396#0 114667396#1 114667396#2 -15977422#1 -15977422#0 -195411605#1 -195411605#0 -31313667#2 -31313667#1 -31313667#0 -137630045"/>
    </vehicle>
    <vehicle id="veh4" type="passenger" depart="71.17" departLane="best">
        <route edges="-25302636#1 -25294729#0 156364570#1 156364570#2 156364570#4 156364556#0 156364556#1 202157002#1 202157002#2 202157002#4 24913519#1 24913519#2 541763975 202156995#0 202156995#1 4067932#1 541763974 61584187#1 61584187#2 61584187#3 61584187#4 54048863 15971197#1 4611699 169195795#0 168937986#0 168937986#2 168937986#3 168937986#4 4610480 35578557 83517334#1 22972219#0"/>
    </vehicle>
    <vehicle id="veh5" type="passenger" depart="88.97" departLane="best">
        <route edges="-156364570#3 156364570#2 156364570#4 156364556#0 156364556#1 202157002#1 202157002#2 202157002#4 24913519#1 24913519#2 541763975 202156995#0 202156995#1 4067932#1 541763974 61584187#1 61584187#2 61584187#3 61584187#4 54048863 15971197#1 4611699 169195795#0 169195795#1 169195795#2 169195795#4 169195795#5 114667396#0 114667396#1 114667396#2 -15977422#1 -15977422#0 -195411605#1 -195411605#0 -31313667#2"/>
    </vehicle>
    <vehicle id="veh6" type="passenger" depart="106.76" departLane="best">
        <route edges="-25302636#1 -25294729#0 156364570#1 156364570#2 156364570#4 156364556#0 156364556#1 202157002#1 202157002#2 202157002#4 24913519#1 24913519#2 541763975 202156995#0 202156995#1 4067932#1 541763974 61584187#1 61584187#2 61584187#3 61584187#4 54048863 15971197#1 4611699 169195795#0 169195795#1 169195795#2 169195795#4 169195795#5 114667396#0 114667396#1 114667396#2 -15977422#1 -15977422#0 24243092#0 24243092#1"/>
    </vehicle>
    <vehicle id="veh7" type="passenger" depart="124.56" departLane="best">
        <route edges="4610362#4 4610362#5 4610362#6 4610362#7 4610362#8 30721662#0 30721662#1 30721662#2 30721662#3 23809670#0 23809670#1 23809670#2 23809670#3 23809670#4 23809670#5 28016312#0 28016312#1 156364556#0 156364556#1 202157002#1 202157002#2 202157002#4 -534588621#1 -534588621#0 606078071#0 -562707499 -136571494#5 -136571494#3 -136571494#1 -136571494#0"/>
    </vehicle>
    <vehicle id="veh8" type="passenger" depart="142.35" departLane="best">
        <route edges="-55741054 -62363401 -234463928#0 -234463931#4 -234463931#3 -234463931#2 -234463931#1 -234463931#0 77348147 156364570#1 156364570#2 156364570#4 -28016312#3 -28016312#0 -23809670#5 -23809670#4 -23809670#3 -23809670#2"/>
    </vehicle>
    <vehicle id="veh9" type="passenger" depart="160.14" departLane="best">
        <route edges="-194962998 15971196#1 54048862#0 54048862#2 541763974 61584187#1 61584187#2 61584187#3 61584187#4 54048863 15971197#1 4611699 169195795#0 169195795#1 169195795#2 169195795#4 169195795#5 114667396#0 114667396#1 114667396#2 -15977422#1 -15977422#0 -195411605#1"/>
    </vehicle>
    <vehicle id="veh10" type="passenger" depart="177.94" departLane="best">
        <route edges="4610600 -4610600 4610480 35578557 83517334#1 22972219#0 22972219#2 35578559 195397541#1 137630045 -339201185 24243107#0 24243107#1 24243107#2"/>
    </vehicle>
    <vehicle id="veh11" type="passenger" depart="195.73" departLane="best">
        <route edges="4610362#3 4610362#4 4610362#5 4610362#6 4610362#7 4610362#8 30721662#0 30721662#1 30721662#2 30721662#3 23809670#0 23809670#1 23809670#2 23809670#3 23809670#4 23809670#5 28016312#0 28016312#1 156364556#0 156364556#1 202157002#1 202157002#2 202157002#4 24913519#1 24913519#2 541763975 202156995#0 202156995#1 4067932#1 541763974 61584187#1 61584187#2 61584187#3 61584187#4 54048863 15971197#1 4611699 169195795#0 169195795#1 169195795#2 169195795#4 169195795#5 114667396#0 114667396#1 114667396#2 340498976#1 340498976#2 340498976#3 340498976#4 340498976#5"/>
    </vehicle>
    <vehicle id="veh12" type="passenger" depart="213.52" departLane="best">
        <route edges="202157002#2 202157002#4 24913519#1 24913519#2 541763975 202156995#0 202156995#1 4067932#1 541763974 61584187#1 61584187#2 61584187#3"/>
    </vehicle>
    <vehicle id="veh13" type="passenger" depart="231.32" departLane="best">
        <route edges="122820534#0 122820534#1 340498976#3 340498976#4 340498976#5 340498976#6 340498976#7 340498976#8 340498976#9 340498976#10 83517339 -4610480 4610600 15971189 339201177#1 339201177#2 339201177#3 339201177#4 23121445#0 23121445#1 23121445#2 23121445#3 23121445#4 23121445#5 54048862#3 23013165#1 23013165#2 4611698#1 202156994#0 4773465#0 4773465#1 4773465#2 4773465#3 490365295#1 490365295#3 -156364570#4 -156364570#3 -156364570#1 -156364570#0 25294728 234463931#1 234463931#2 234463931#3 234463931#4 234463931#5"/>
    </vehicle>
    <vehicle id="veh14" type="passenger" depart="249.11" departLane="best">
        <route edges="4610476#1 4610476#2 4610476#3 15977422#0 15977422#1 340498976#1 340498976#2 340498976#3 340498976#4 340498976#5 340498976#6 340498976#7 340498976#8 340498976#9 340498976#10 83517339 -4610480 4610600 15971189 339201177#1 339201177#2 339201177#3 339201177#4 23121445#0 23121445#1 23121445#2 23121445#3 23121445#4 23121445#5 54048862#3 23013165#1 23013165#2 4611698#1 202156994#0 24913519#1 24913519#2"/>
    </vehicle>
    <vehicle id="veh15" type="passenger" depart="266.90" departLane="best">
        <route edges="46140382 30721660#1 30721660#2 30721660#3 30721660#4 30721660#5 4610362#0 4610362#1 4610362#2 4610362#3 4610362#4 4610362#5 4610362#6 4610362#7 4610362#8 30721662#0 30721662#1 30721662#2 30721662#3 23809670#0 23809670#1 23809670#2 23809670#3 23809670#4 23809670#5 28016312#0 28016312#1 156364556#0 156364556#1 202157002#1 202157002#2 202157002#4 24913519#1 24913519#2 541763975 202156995#0 202156995#1 4067932#1 541763974 61584187#1 61584187#2 61584187#3 61584187#4 54048863 15971197#1 4611699 169195795#0 169195795#1 169195795#2 169195795#4 169195795#5 114667396#0 114667396#1 114667396#2 -15977422#1 -15977422#0 24243092#0"/>
    </vehicle>
    <vehicle id="veh16" type="passenger" depart="284.70" departLane="best">
        <route edges="316746323#1 370359204#0 370359204#2 275177453 77348147 156364570#1 156364570#2 156364570#4 156364556#0 156364556#1 202157002#1 202157002#2 202157002#4 -534588621#1 -534588621#0 606078071#0 61583423#0 -156364553#1 -156364553#0"/>
    </vehicle>
    <vehicle id="veh17" type="passenger" depart="302.49" departLane="best">
        <route edges="-28016312#0 28016312#0 28016312#1 156364556#0 156364556#1 202157002#1 202157002#2 202157002#4 24913519#1 24913519#2 541763975 202156995#0 202156995#1 4067932#1 541763974 61584187#1 61584187#2 61584187#3 61584187#4 54048863 15971197#1 4611699 169195795#0 169195795#1 169195795#2 169195795#4 169195795#5 114667396#0"/>
    </vehicle>
    <vehicle id="veh18" type="passenger" depart="320.28" departLane="best">
        <route edges="-188914559 -62363401 -234463928#0 -234463931#4 -234463931#3 -234463931#2 -234463931#1 -234463931#0 77348147 156364570#1 156364570#2 156364570#4 156364556#0 156364556#1 202157002#1 202157002#2 202157002#4 24913519#1 24913519#2 541763975 202156995#0 202156995#1 4067932#1 541763974 61584187#1 61584187#2 61584187#3 61584187#4 54048863 15971197#1 4611699 169195795#0 169195795#1 169195795#2 169195795#4 169195795#5 114667396#0 114667396#1 114667396#2 -15977422#1 -15977422#0 -195411605#1 -195411605#0 -31313667#2 -31313667#1 -31313667#0 -339201185 24243107#0 24243107#1 -4610375"/>
    </vehicle>
    <vehicle id="veh19" type="passenger" depart="338.08" departLane="best">
        <route edges="24914992#0 24914992#1 171826985#1 171826985#3 171826985#5 24913519#1 24913519#2 541763975 202156995#0 202156995#1 4067932#1 541763974 61584187#1 61584187#2 61584187#3 61584187#4 54048863 15971197#1 4611699 169195795#0 169195795#1 169195795#2 169195795#4 169195795#5 114667396#0 114667396#1 114667396#2 -15977422#1 -15977422#0 -195411605#1 -195411605#0 -31313667#2 -31313667#1 -31313667#0 -339201185 24243107#0 24243107#1 168940071#0 168940071#1"/>
    </vehicle>
    <vehicle id="veh20" type="passenger" depart="355.87" departLane="best">
        <route edges="-370359204#0 370359204#0 370359204#2 275177453 25294728 234463931#1 234463931#2 234463931#3 234463931#4 234463931#5 234463928#1 55741054"/>
    </vehicle>
    <vehicle id="veh21" type="passenger" depart="373.67" departLane="best">
        <route edges="25294729#0 -25294729#0 156364570#1 156364570#2 156364570#4 156364556#0 156364556#1 202157002#1 202157002#2 202157002#4 24913519#1 24913519#2 541763975 202156995#0 202156995#1 4067932#1 541763974 61584187#1 61584187#2 61584187#3 61584187#4 54048863 15971197#1 4611699 169195795#0 169195795#1 169195795#2 169195795#4 169195795#5 114667396#0 114667396#1 114667396#2 -15977422#1 -15977422#0 -195411605#1 -195411605#0 -31313667#2 -31313667#1 -31313667#0 -339201185 24243107#0 24243107#1 24243107#2"/>
    </vehicle>
    <vehicle id="veh22" type="passenger" depart="391.46" departLane="best">
        <route edges="-23809670#3 23809670#3 23809670#4 23809670#5 28016312#0 28016312#1 156364556#0 156364556#1 202157002#1 202157002#2 202157002#4 24913519#1 24913519#2 541763975 202156995#0 202156995#1 4067932#1 541763974 61584187#1 61584187#2 61584187#3 61584187#4 54048863 15971197#1 4611699 169195795#0 169195795#1 169195795#2 169195795#4 169195795#5 114667396#0 114667396#1 114667396#2 340498976#1 340498976#2 340498976#3 340498976#4 340498976#5"/>
    </vehicle>
    <vehicle id="veh23" type="passenger" depart="409.25" departLane="best">
        <route edges="-234463931#4 -234463931#3 -234463931#2 -234463931#1 -234463931#0 77348147 156364570#1 156364570#2 156364570#4 156364556#0 156364556#1 202157002#1 202157002#2 202157002#4 24913519#1 24913519#2 541763975 202156995#0 202156995#1 4067932#1 541763974 61584187#1 61584187#2 61584187#3 61584187#4 54048863 15971197#1 4611699 169195795#0 169195795#1"/>
    </vehicle>
    <vehicle id="veh24" type="passenger" depart="427.05" departLane="best">
        <route edges="83517332#2 84960595 316746323#0 316746323#1 370359204#0 370359204#2 275177453 77348147 25294729#0 25294729#1"/>
    </vehicle>
    <vehicle id="veh25" type="passenger" depart="444.84" departLane="best">
        <route edges="4610480 -4610480 4610600 15971189 339201177#1 339201177#2 339201177#3 339201177#4 23121445#0 23121445#1 23121445#2 23121445#3 23121445#4 23121445#5 54048862#3 23013165#1 23013165#2 4611698#1 202156994#0 4773465#0 4773465#1 4773465#2 4773465#3 490365295#1 490365295#3 -156364570#4 -156364570#3 -156364570#1 -156364570#0 -387892378 -478396988 -370359204#0 -316746323#2 -316746323#0 -84960595 183415643 46140378 46140382 30721660#1 30721660#2 30721660#3 30721660#4 30721660#5 4610362#0 4610362#1 4610362#2 4610362#3 4610362#4"/>
    </vehicle>
    <vehicle id="veh26" type="passenger" depart="462.63" departLane="best">
        <route edges="-28016312#0 28016312#0 28016312#1 156364556#0 156364556#1 202157002#1 202157002#2 202157002#4 -534588621#1 -534588621#0 606078071#0 61583423#0 -156364553#1 -156364553#0"/>
    </vehicle>
    <vehicle id="veh27" type="passenger" depart="480.43" departLane="best">
        <route edges="-25294729#1 -25294729#0 -156364570#0 25294728 234463931#1 234463931#2 234463931#3 234463931#4 234463931#5 234463928#1 55741054"/>
    </vehicle>
    <vehicle id="veh28" type="passenger" depart="498.22" departLane="best">
        <route edges="48664717#0 -48664717#0 370359204#0 370359204#2 275177453 77348147 156364570#1 156364570#2 156364570#4 156364556#0 156364556#1 202157002#1 202157002#2 202157002#4 -534588621#1 -534588621#0 606078071#0 61583423#0 -156364553#1 156364553#1"/>
    </vehicle>
    <vehicle id="veh29" type="passenger" depart="516.01" departLane="best">
        <route edges="25302636#3 -25302636#3 -25302636#2 -25302636#1 -25294729#0 156364570#1 156364570#2 156364570#4 156364556#0 156364556#1 202157002#1 202157002#2 202157002#4 24913519#1 24913519#2 541763975 202156995#0 202156995#1 4067932#1 541763974 61584187#1 61584187#2 61584187#3 61584187#4 54048863 15971197#1 4611699 169195795#0 169195795#1 169195795#2 169195795#4 169195795#5 169195795#6"/>
    </vehicle>
    <vehicle id="veh33" type="passenger" depart="587.19" departLane="best">
        <route edges="136571494#1 136571494#2 136571494#4 562707499 61583424#1 534588621#0 534588621#1 24913519#1 24913519#2 541763975 202156995#0 202156995#1 4067932#1 -23121445#5 -23121445#4 -23121445#3 -23121445#2 -23121445#1 -23121445#0 -339201177#4"/>
    </vehicle>
    <vehicle id="veh34" type="passenger" depart="604.98" departLane="best">
        <route edges="84960595 316746323#0 316746323#1 370359204#0 370359204#2 275177453 77348147 156364570#1 156364570#2 156364570#4 156364556#0 156364556#1 202157002#1 202157002#2 202157002#4 24913519#1 24913519#2 541763975 202156995#0 202156995#1 4067932#1 541763974 61584187#1 61584187#2 61584187#3 61584187#4 54048863 15971197#1 4611699 169195795#0 168937986#0 168937986#2 168937986#3 168937986#4 4610480 35578557 83517334#1 22972219#0 22972219#2"/>
    </vehicle>
    <vehicle id="veh35" type="passenger" depart="622.78" departLane="best">
        <route edges="-194962998 15971196#1 54048862#0 54048862#2 54048862#3 23013165#1 23013165#2 4611698#1 202156994#0 -534588621#1 -534588621#0 606078071#0 61583423#0 -156364553#1"/>
    </vehicle>
    <vehicle id="veh36" type="passenger" depart="640.57" departLane="best">
        <route edges="-194963395 136571494#4 562707499 61583424#1 534588621#0 534588621#1 4773465#0 4773465#1 4773465#2 4773465#3 490365295#1 490365295#3 -156364570#4 -156364570#3 -156364570#1 25294729#0"/>
    </vehicle>
    <vehicle id="veh37" type="passenger" depart="658.36" departLane="best">
        <route edges="4610351#1 4610351#2 30721660#4 30721660#5 4610362#0 4610362#1 4610362#2 4610362#3 4610362#4 4610362#5 4610362#6 4610362#7 4610362#8 30721662#0 30721662#1 30721662#2 30721662#3 23809670#0 23809670#1 23809670#2 23809670#3 23809670#4 23809670#5 28016312#0 28016312#1 156364556#0 156364556#1 202157002#1 202157002#2 202157002#4 72157174#0 72157174#1 171826984#2 171826984#3 171826984#4"/>
    </vehicle>
    <vehicle id="veh38" type="passenger" depart="676.16" departLane="best">
        <route edges="-168940071#1 -168940071#0 -24243107#1 -24243107#0 -24243101 492340367 31313667#1 31313667#2 31313667#3 195411605#1 15977422#0 15977422#1 340498976#1 340498976#2 340498976#3 340498976#4 340498976#5 340498976#6 340498976#7 340498976#8 340498976#9 340498976#10 83517339 -4610480 -168937986#4 -168937986#3 -168937986#2 -168937986#0 169195795#1"/>
    </vehicle>
    <vehicle id="veh39" type="passenger" depart="693.95" departLane="best">
        <route edges="83517339 -4610480 4610600 15971189 339201177#1 339201177#2 339201177#3 339201177#4 23121445#0 23121445#1 23121445#2 23121445#3"/>
    </vehicle>
    <vehicle id="veh40" type="passenger" depart="711.74" departLane="best">
        <route edges="-136571494#3 136571494#2 136571494#4 562707499 61583424#1 534588621#0 534588621#1 24913519#1 24913519#2 541763975 202156995#0 202156995#1 4067932#1 541763974 61584187#1 61584187#2 61584187#3 61584187#4 54048863 15971197#1 4611699 169195795#0 169195795#1 169195795#2 169195795#4 169195795#5 114667396#0 114667396#1 114667396#2 340498976#1 340498976#2"/>
    </vehicle>
    <vehicle id="veh41" type="passenger" depart="729.54" departLane="best">
        <route edges="30721662#0 30721662#1 30721662#2 30721662#3 23809670#0 23809670#1 23809670#2 23809670#3 23809670#4 23809670#5 28016312#0 28016312#1 -156364570#4 -156364570#3 -156364570#1 -156364570#0 25294728 234463931#1 234463931#2 234463931#3 234463931#4 234463931#5 234463928#1"/>
    </vehicle>
    <vehicle id="veh42" type="passenger" depart="747.33" departLane="best">
        <route edges="-194963395 136571494#4 562707499 61583424#1 534588621#0 534588621#1 4773465#0 4773465#1 4773465#2 4773465#3 490365295#1 490365295#3 -156364570#4 -156364570#3 -156364570#1 -156364570#0 -387892378 -478396988 -370359204#0 -316746323#2 -316746323#0 -84960595 183415643"/>
    </vehicle>
    <vehicle id="veh43" type="passenger" depart="765.12" departLane="best">
        <route edges="15971196#0 15971196#1 54048862#0 54048862#2 54048862#3 23013165#1 23013165#2 4611698#1 202156994#0 -534588621#1 -534588621#0 606078071#0 606078069#0 606078069#3"/>
    </vehicle>
    <vehicle id="veh45" type="passenger" depart="800.71" departLane="best">
        <route edges="534588621#0 534588621#1 4773465#0 4773465#1 4773465#2 4773465#3"/>
    </vehicle>
    <vehicle id="veh46" type="passenger" depart="818.50" departLane="best">
        <route edges="35578557 83517334#1 22972219#0 22972219#2 4610476#0 4610476#1 4610476#2 4610476#3 15977422#0 15977422#1 340498976#1 340498976#2 340498976#3 340498976#4 340498976#5 340498976#6 340498976#7 340498976#8 340498976#9 340498976#10 83517339 -4610480 4610600 15971189 339201177#1 339201177#2 339201177#3 339201177#4 23121445#0 23121445#1 23121445#2 23121445#3 23121445#4 23121445#5 54048862#3 23013165#1 23013165#2 4611698#1 202156994#0 4773465#0 4773465#1 4773465#2 4773465#3 490365295#1 490365295#3 -156364570#4 -156364570#3 -156364570#1 -156364570#0 25294728 234463931#1"/>
    </vehicle>
    <vehicle id="veh47" type="passenger" depart="836.30" departLane="best">
        <route edges="4610351#0 4610351#1 4610351#2 30721660#4 30721660#5 4610362#0 4610362#1 4610362#2 4610362#3 4610362#4 4610362#5 4610362#6 4610362#7 4610362#8 30721662#0 30721662#1 30721662#2 30721662#3 23809670#0 23809670#1 23809670#2 23809670#3 23809670#4 23809670#5 28016312#0 28016312#1 156364556#0 156364556#1 202157002#1 202157002#2 202157002#4 24913519#1 24913519#2 541763975 202156995#0 202156995#1 4067932#1 -23121445#5 -23121445#4 -23121445#3 23121445#3"/>
    </vehicle>
    <vehicle id="veh48" type="passenger" depart="854.09" departLane="best">
        <route edges="-122820534#0 122820534#0 122820534#1 340498976#3 340498976#4 340498976#5 340498976#6 340498976#7 340498976#8 340498976#9 340498976#10 83517339 -4610480 4610600 15971189 339201177#1 339201177#2 339201177#3 339201177#4 23121445#0 23121445#1 23121445#2 23121445#3 23121445#4 23121445#5 54048862#3 23013165#1 23013165#2 4611698#1 202156994#0 4773465#0 4773465#1 4773465#2 4773465#3 490365295#1 490365295#3 -156364570#4 -156364570#3 156364570#2"/>
    </vehicle>
    <vehicle id="veh49" type="passenger" depart="871.89" departLane="best">
        <route edges="-156364553#1 156364553#1 72157172 61583424#1 534588621#0 534588621#1 24913519#1 24913519#2 541763975 202156995#0 202156995#1 4067932#1 541763974"/>
    </vehicle>
    <vehicle id="veh50" type="passenger" depart="889.68" departLane="best">
        <route edges="48664717#1 48664717#2 168942727#1 -62363401 -234463928#0 -234463931#4 -234463931#3 -234463931#2 -234463931#1 -234463931#0 77348147 156364570#1 156364570#2 156364570#4 156364556#0 156364556#1 202157002#1 202157002#2 202157002#4 24913519#1 24913519#2 541763975 202156995#0 202156995#1 4067932#1 54048862#3 23013165#1 23013165#2 4611698#1"/>
    </vehicle>
    <vehicle id="veh52" type="passenger" depart="925.27" departLane="best">
        <route edges="-188914559 -62363401 -234463928#0 -234463931#4 -234463931#3 -234463931#2 -234463931#1 -234463931#0 77348147 156364570#1 156364570#2 156364570#4 156364556#0 156364556#1 202157002#1 202157002#2 202157002#4 24913519#1 24913519#2 541763975 202156995#0 202156995#1 4067932#1 541763974 61584187#1 61584187#2 61584187#3 61584187#4 54048863 15971197#1 4611699 169195795#0 169195795#1 169195795#2 169195795#4 169195795#5 114667396#0 114667396#1 114667396#2 -15977422#1 -15977422#0 -195411605#1 195411605#1"/>
    </vehicle>
    <vehicle id="veh54" type="passenger" depart="960.85" departLane="best">
        <route edges="35578559 -195397541#0 4610476#0 4610476#1 4610476#2 4610476#3 15977422#0 15977422#1 340498976#1 340498976#2 340498976#3 340498976#4 340498976#5 340498976#6 340498976#7 340498976#8 340498976#9 340498976#10 83517339 -4610480 4610600 15971189 339201177#1 339201177#2 339201177#3 339201177#4 23121445#0 23121445#1 23121445#2 23121445#3 23121445#4 23121445#5 54048862#3 23013165#1 23013165#2 4611698#1 202156994#0 4773465#0 4773465#1 4773465#2 4773465#3 490365295#1 490365295#3 -156364570#4 -156364570#3 -156364570#1 -156364570#0 25294728 234463931#1 234463931#2 -234463931#2"/>
    </vehicle>
    <vehicle id="veh55" type="passenger" depart="978.65" departLane="best">
        <route edges="168937986#3 168937986#4 4610600 15971189 339201177#1 339201177#2 339201177#3 339201177#4 23121445#0 23121445#1 23121445#2 23121445#3 23121445#4 23121445#5 54048862#3 23013165#1 23013165#2 4611698#1 202156994#0 4773465#0 4773465#1 4773465#2 4773465#3 490365295#1 490365295#3 -156364570#4 -156364570#3 -156364570#1 -156364570#0 25294728 234463931#1 234463931#2 234463931#3 234463931#4"/>
    </vehicle>
    <vehicle id="veh56" type="passenger" depart="996.44" departLane="best">
        <route edges="156364553#1 72157172 61583424#1 534588621#0 534588621#1 24913519#1 24913519#2 541763975 202156995#0 202156995#1 4067932#1 -23121445#5 -23121445#4 -23121445#3 -23121445#2 -23121445#1 -23121445#0 -339201177#4 -339201177#3 -339201177#2 -339201177#1"/>
    </vehicle>
    <vehicle id="veh57" type="passenger" depart="1014.23" departLane="best">
        <route edges="202157002#4 24913519#1 24913519#2 541763975 202156995#0 202156995#1 4067932#1 541763974 61584187#1 61584187#2 61584187#3 61584187#4 54048863 15971197#1 4611699 169195795#0 169195795#1 169195795#2 169195795#4 169195795#5 114667396#0 114667396#1 114667396#2 340498976#1 340498976#2 340498976#3 340498976#4 340498976#5"/>
    </vehicle>
    <vehicle id="veh58" type="passenger" depart="1032.03" departLane="best">
        <route edges="-25294729#0 156364570#1 156364570#2 156364570#4 156364556#0 156364556#1 202157002#1 202157002#2 202157002#4 24913519#1 24913519#2 541763975 202156995#0 202156995#1 4067932#1 541763974 61584187#1 61584187#2 61584187#3 61584187#4 54048863 15971197#1 4611699 169195795#0 168937986#0 168937986#2 168937986#3 168937986#4 4610480 35578557 83517334#1 22972219#0 22972219#2 35578559 195397541#1 137630045"/>
    </vehicle>
    <vehicle id="veh59" type="passenger" depart="1049.82" departLane="best">
        <route edges="83517339 -4610480 4610600 15971189 339201177#1 339201177#2 339201177#3 339201177#4 23121445#0 23121445#1 23121445#2 23121445#3 23121445#4 23121445#5 54048862#3 23013165#1 23013165#2 4611698#1 202156994#0 4773465#0 4773465#1 4773465#2 4773465#3 490365295#1 490365295#3 -156364570#4 -156364570#3 -156364570#1 25294729#0 25302636#1 25302636#2"/>
    </vehicle>
    <vehicle id="veh60" type="passenger" depart="1067.62" departLane="best">
        <route edges="-195411605#0 31313667#3 195411605#1 15977422#0 15977422#1 340498976#1 340498976#2 340498976#3 340498976#4 340498976#5 340498976#6 340498976#7 340498976#8 340498976#9 340498976#10 83517339 -4610480 4610600 15971189 339201177#1 339201177#2 339201177#3 339201177#4 23121445#0 23121445#1 23121445#2 23121445#3 23121445#4 23121445#5 54048862#3 23013165#1 23013165#2 4611698#1 202156994#0 4773465#0 4773465#1 4773465#2 4773465#3 490365295#1 490365295#3 -156364570#4 -156364570#3 -156364570#1 -156364570#0 -387892378 -478396988 -370359204#0"/>
    </vehicle>
    <vehicle id="veh61" type="passenger" depart="1085.41" departLane="best">
        <route edges="-55741054 -62363401 -234463928#0 -234463931#4 -234463931#3 -234463931#2 -234463931#1 -234463931#0 77348147 156364570#1 156364570#2 156364570#4 156364556#0 156364556#1 202157002#1 202157002#2 202157002#4 24913519#1 24913519#2 541763975 202156995#0 202156995#1 4067932#1 541763974 61584187#1 61584187#2 61584187#3 61584187#4 54048863 15971197#1 4611699 169195795#0 169195795#1 169195795#2 169195795#4 169195795#5 114667396#0 114667396#1 114667396#2 -15977422#1 -15977422#0 24243092#0 24243092#1"/>
    </vehicle>
    <vehicle id="veh62" type="passenger" depart="1103.20" departLane="best">
        <route edges="-28016312#3 28016312#1 156364556#0 156364556#1 202157002#1 202157002#2 202157002#4 24913519#1 24913519#2 541763975 202156995#0 202156995#1 4067932#1 -23121445#5 -23121445#4 -23121445#3 -23121445#2 -23121445#1 -23121445#0 -339201177#4"/>
    </vehicle>
    <vehicle id="veh64" type="passenger" depart="1138.79" departLane="best">
        <route edges="46140382 30721660#1 30721660#2 30721660#3 30721660#4 30721660#5 4610362#0 4610362#1 4610362#2 4610362#3 4610362#4 4610362#5 4610362#6 4610362#7 4610362#8 30721662#0 30721662#1 30721662#2 30721662#3 23809670#0 23809670#1 23809670#2 23809670#3 23809670#4 23809670#5 28016312#0 28016312#1 156364556#0 156364556#1 202157002#1 202157002#2 202157002#4 24913519#1 24913519#2 541763975 202156995#0 202156995#1 4067932#1 541763974 61584187#1 61584187#2 61584187#3 61584187#4 54048863 15971197#1 4611699 169195795#0 168937986#0 168937986#2 -168937986#2"/>
    </vehicle>
    <vehicle id="veh65" type="passenger" depart="1156.58" departLane="best">
        <route edges="-31313667#1 31313667#1 31313667#2 31313667#3 195411605#1 15977422#0 15977422#1 340498976#1 340498976#2 340498976#3 340498976#4 340498976#5 340498976#6 340498976#7 340498976#8 340498976#9 340498976#10 83517339 -4610480 4610600 15971189 339201177#1 339201177#2 339201177#3 339201177#4 23121445#0 23121445#1 23121445#2 23121445#3 23121445#4 23121445#5 54048862#3 23013165#1 23013165#2 4611698#1 202156994#0 4773465#0 4773465#1 4773465#2 4773465#3 490365295#1 490365295#3 -156364570#4 -156364570#3 -156364570#1 -156364570#0 -387892378 -478396988 -370359204#0 -316746323#2 -316746323#0 -84960595 183415643 46140378 46140382 30721660#1 30721660#2 30721660#3"/>
    </vehicle>
    <vehicle id="veh66" type="passenger" depart="1174.38" departLane="best">
        <route edges="562707499 61583424#1 534588621#0 534588621#1 4773465#0 4773465#1 4773465#2 4773465#3 490365295#1 490365295#3 -28016312#3 -28016312#0 -23809670#5 23809670#5"/>
    </vehicle>
    <vehicle id="veh67" type="passenger" depart="1192.17" departLane="best">
        <route edges="168937986#2 168937986#3 168937986#4 4610600 15971189 339201177#1 339201177#2 339201177#3 339201177#4 23121445#0 23121445#1 23121445#2 23121445#3 23121445#4 23121445#5 54048862#3 23013165#1 23013165#2 4611698#1 202156994#0 4773465#0 4773465#1 4773465#2 4773465#3 490365295#1 490365295#3 -156364570#4 -156364570#3 -156364570#1 -156364570#0 -387892378 -478396988 -370359204#0 -316746323#2 -316746323#0 -84960595 183415643 46140378 46140382 30721660#1 30721660#2 30721660#3 30721660#4 30721660#5 4610362#0 4610362#1 4610362#2 4610362#3 4610362#4 4610362#5 4610362#6 4610362#7"/>
    </vehicle>
    <vehicle id="veh68" type="passenger" depart="1209.96" departLane="best">
        <route edges="4610362#4 4610362#5 4610362#6 4610362#7 4610362#8 30721662#0 30721662#1 30721662#2 30721662#3 23809670#0 23809670#1 23809670#2 23809670#3 23809670#4 23809670#5 28016312#0 28016312#1 -28016312#3"/>
    </vehicle>
    <vehicle id="veh70" type="passenger" depart="1245.55" departLane="best">
        <route edges="340498976#0 340498976#1 340498976#2 340498976#3 340498976#4 340498976#5 340498976#6 340498976#7 340498976#8 340498976#9 340498976#10 83517339 -4610480 4610600 15971189 339201177#1 339201177#2 339201177#3 339201177#4 23121445#0 23121445#1 23121445#2 23121445#3 23121445#4 23121445#5 54048862#3 23013165#1 23013165#2 4611698#1 202156994#0 4773465#0 4773465#1 4773465#2 4773465#3 490365295#1 490365295#3 -156364570#4 -156364570#3 -156364570#1 -156364570#0 -387892378 -478396988 -370359204#0 -316746323#2 -316746323#0 -84960595 183415643 46140378 46140382 30721660#1 30721660#2 30721660#3 30721660#4"/>
    </vehicle>
    <vehicle id="veh71" type="passenger" depart="1263.34" departLane="best">