<?xml version="1.0"?>
<!-- generated on 2018-12-08 18:24:50.634673 by $Id: route2trips.py 23614 2017-03-22 13:02:46Z luecken $ via randomTrips.py
  options: 
-->
<routes xmlns:xsi="http://www.w3.org/2001/XMLSchema-instance" xsi:noNamespaceSchemaLocation="http://sumo.dlr.de/xsd/routes_file.xsd">
    <vType id="passenger" vClass="passenger">
    </vType>
    <trip id="veh0" depart="0.00" departLane="best" from="24914992#0" to="-136571494#3" type="passenger"/>
    <trip id="veh1" depart="17.79" departLane="best" from="340498976#10" to="30721662#0" type="passenger"/>
    <trip id="veh3" depart="53.38" departLane="best" from="156364553#0" to="-137630045" type="passenger"/>
    <trip id="veh4" depart="71.17" departLane="best" from="-25302636#1" to="22972219#0" type="passenger"/>
    <trip id="veh5" depart="88.97" departLane="best" from="-156364570#3" to="-31313667#2" type="passenger"/>
    <trip id="veh6" depart="106.76" departLane="best" from="-25302636#1" to="24243092#1" type="passenger"/>
    <trip id="veh7" depart="124.56" departLane="best" from="4610362#4" to="-136571494#0" type="passenger"/>
    <trip id="veh8" depart="142.35" departLane="best" from="-55741054" to="-23809670#2" type="passenger"/>
    <trip id="veh9" depart="160.14" departLane="best" from="-194962998" to="-195411605#1" type="passenger"/>
    <trip id="veh10" depart="177.94" departLane="best" from="4610600" to="24243107#2" type="passenger"/>
    <trip id="veh11" depart="195.73" departLane="best" from="4610362#3" to="340498976#5" type="passenger"/>
    <trip id="veh12" depart="213.52" departLane="best" from="202157002#2" to="61584187#3" type="passenger"/>
    <trip id="veh13" depart="231.32" departLane="best" from="122820534#0" to="234463931#5" type="passenger"/>
    <trip id="veh14" depart="249.11" departLane="best" from="4610476#1" to="24913519#2" type="passenger"/>
    <trip id="veh15" depart="266.90" departLane="best" from="46140382" to="24243092#0" type="passenger"/>
    <trip id="veh16" depart="284.70" departLane="best" from="316746323#1" to="-156364553#0" type="passenger"/>
    <trip id="veh17" depart="302.49" departLane="best" from="-28016312#0" to="114667396#0" type="passenger"/>
    <trip id="veh18" depart="320.28" departLane="best" from="-188914559" to="-4610375" type="passenger"/>
    <trip id="veh19" depart="338.08" departLane="best" from="24914992#0" to="168940071#1" type="passenger"/>
    <trip id="veh20" depart="355.87" departLane="best" from="-370359204#0" to="55741054" type="passenger"/>
    <trip id="veh21" depart="373.67" departLane="best" from="25294729#0" to="24243107#2" type="passenger"/>
    <trip id="veh22" depart="391.46" departLane="best" from="-23809670#3" to="340498976#5" type="passenger"/>
    <trip id="veh23" depart="409.25" departLane="best" from="-234463931#4" to="169195795#1" type="passenger"/>
    <trip id="veh24" depart="427.05" departLane="best" from="83517332#2" to="25294729#1" type="passenger"/>
    <trip id="veh25" depart="444.84" departLane="best" from="4610480" to="4610362#4" type="passenger"/>
    <trip id="veh26" depart="462.63" departLane="best" from="-28016312#0" to="-156364553#0" type="passenger"/>
    <trip id="veh27" depart="480.43" departLane="best" from="-25294729#1" to="55741054" type="passenger"/>
    <trip id="veh28" depart="498.22" departLane="best" from="48664717#0" to="156364553#1" type="passenger"/>
    <trip id="veh29" depart="516.01" departLane="best" from="25302636#3" to="169195795#6" type="passenger"/>
    <trip id="veh33" depart="587.19" departLane="best" from="136571494#1" to="-339201177#4" type="passenger"/>
    <trip id="veh34" depart="604.98" departLane="best" from="84960595" to="22972219#2" type="passenger"/>
    <trip id="veh35" depart="622.78" departLane="best" from="-194962998" to="-156364553#1" type="passenger"/>
    <trip id="veh36" depart="640.57" departLane="best" from="-194963395" to="25294729#0" type="passenger"/>
    <trip id="veh37" depart="658.36" departLane="best" from="4610351#1" to="171826984#4" type="passenger"/>
    <trip id="veh38" depart="676.16" departLane="best" from="-168940071#1" to="169195795#1" type="passenger"/>
    <trip id="veh39" depart="693.95" departLane="best" from="83517339" to="23121445#3" type="passenger"/>
    <trip id="veh40" depart="711.74" departLane="best" from="-136571494#3" to="340498976#2" type="passenger"/>
    <trip id="veh41" depart="729.54" departLane="best" from="30721662#0" to="234463928#1" type="passenger"/>
    <trip id="veh42" depart="747.33" departLane="best" from="-194963395" to="183415643" type="passenger"/>
    <trip id="veh43" depart="765.12" departLane="best" from="15971196#0" to="606078069#3" type="passenger"/>
    <trip id="veh45" depart="800.71" departLane="best" from="534588621#0" to="4773465#3" type="passenger"/>
    <trip id="veh46" depart="818.50" departLane="best" from="35578557" to="234463931#1" type="passenger"/>
    <trip id="veh47" depart="836.30" departLane="best" from="4610351#0" to="23121445#3" type="passenger"/>
    <trip id="veh48" depart="854.09" departLane="best" from="-122820534#0" to="156364570#2" type="passenger"/>
    <trip id="veh49" depart="871.89" departLane="best" from="-156364553#1" to="541763974" type="passenger"/>
    <trip id="veh50" depart="889.68" departLane="best" from="48664717#1" to="4611698#1" type="passenger"/>
    <trip id="veh52" depart="925.27" departLane="best" from="-188914559" to="195411605#1" type="passenger"/>
    <trip id="veh54" depart="960.85" departLane="best" from="35578559" to="-234463931#2" type="passenger"/>
    <trip id="veh55" depart="978.65" departLane="best" from="168937986#3" to="234463931#4" type="passenger"/>
    <trip id="veh56" depart="996.44" departLane="best" from="156364553#1" to="-339201177#1" type="passenger"/>
    <trip id="veh57" depart="1014.23" departLane="best" from="202157002#4" to="340498976#5" type="passenger"/>
    <trip id="veh58" depart="1032.03" departLane="best" from="-25294729#0" to="137630045" type="passenger"/>
    <trip id="veh59" depart="1049.82" departLane="best" from="83517339" to="25302636#2" type="passenger"/>
    <trip id="veh60" depart="1067.62" departLane="best" from="-195411605#0" to="-370359204#0" type="passenger"/>
    <trip id="veh61" depart="1085.41" departLane="best" from="-55741054" to="24243092#1" type="passenger"/>
    <trip id="veh62" depart="1103.20" departLane="best" from="-28016312#3" to="-339201177#4" type="passenger"/>
    <trip id="veh64" depart="1138.79" departLane="best" from="46140382" to="-168937986#2" type="passenger"/>
    <trip id="veh65" depart="1156.58" departLane="best" from="-31313667#1" to="30721660#3" type="passenger"/>
    <trip id="veh66" depart="1174.38" departLane="best" from="562707499" to="23809670#5" type="passenger"/>
    <trip id="veh67" depart="1192.17" departLane="best" from="168937986#2" to="4610362#7" type="passenger"/>
    <trip id="veh68" depart="1209.96" departLane="best" from="4610362#4" to="-28016312#3" type="passenger"/>
    <trip id="veh70" depart="1245.55" departLane="best" from="340498976#0" to="30721660#4" type="passenger"/>
    <trip id="veh71" depart="1263.34" departLane="best" from="83517332#0" to="-195411605#1" type="passenger"/>
    <trip id="veh72" depart="1281.14" departLane="best" from="136571494#4" to="15977422#0" type="passenger"/>
    <trip id="veh74" depart="1316.73" departLane="best" from="-24243107#2" to="188914559" type="passenger"/>
    <trip id="veh75" depart="1334.52" departLane="best" from="-339201177#0" to="54048862#3" type="passenger"/>
    <trip id="veh76" depart="1352.31" departLane="best" from="15971196#0" to="4773465#0" type="passenger"/>
    <trip id="veh77" depart="1370.11" departLane="best" from="23013165#2" to="-156364570#0" type="passenger"/>
    <trip id="veh78" depart="1387.90" departLane="best" from="84960595" to="4611699" type="passenger"/>
    <trip id="veh80" depart="1423.49" departLane="best" from="4611698#1" to="-24243101" type="passenger"/>
    <trip id="veh81" depart="1441.28" departLane="best" from="136571494#2" to="-156364570#4" type="passenger"/>
    <trip id="veh82" depart="1459.07" departLane="best" from="122820534#0" to="72157174#1" type="passenger"/>
    <trip id="veh83" depart="1476.87" departLane="best" from="15971196#0" to="171826984#4" type="passenger"/>
    <trip id="veh84" depart="1494.66" departLane="best" from="61584187#3" to="83517339" type="passenger"/>
    <trip id="veh85" depart="1512.45" departLane="best" from="-234463931#1" to="114667396#2" type="passenger"/>
    <trip id="veh87" depart="1548.04" departLane="best" from="-168940071#1" to="24243092#1" type="passenger"/>
    <trip id="veh89" depart="1583.63" departLane="best" from="-234463931#2" to="61583423#0" type="passenger"/>
    <trip id="veh90" depart="1601.42" departLane="best" from="-188914559" to="-25302636#3" type="passenger"/>
    <trip id="veh91" depart="1619.22" departLane="best" from="-31313667#0" to="-234463928#0" type="passenger"/>
    <trip id="veh92" depart="1637.01" departLane="best" from="492340367" to="-48664717#1" type="passenger"/>
    <trip id="veh93" depart="1654.80" departLane="best" from="23809670#1" to="24913519#2" type="passenger"/>
    <trip id="veh94" depart="1672.60" departLane="best" from="156364553#0" to="24243092#1" type="passenger"/>
    <trip id="veh95" depart="1690.39" departLane="best" from="195411605#1" to="55741054" type="passenger"/>
    <trip id="veh96" depart="1708.18" departLane="best" from="-25294729#1" to="340498976#1" type="passenger"/>
    <trip id="veh97" depart="1725.98" departLane="best" from="-31313667#2" to="169195795#6" type="passenger"/>
    <trip id="veh98" depart="1743.77" departLane="best" from="30721660#2" to="122820534#1" type="passenger"/>
    <trip id="veh101" depart="1797.15" departLane="best" from="84960595" to="83517339" type="passenger"/>
    <trip id="veh102" depart="1814.95" departLane="best" from="-188914559" to="-339201177#2" type="passenger"/>
    <trip id="veh103" depart="1832.74" departLane="best" from="-370359204#0" to="55741054" type="passenger"/>
    <trip id="veh104" depart="1850.53" departLane="best" from="122820534#0" to="-23809670#3" type="passenger"/>
    <trip id="veh105" depart="1868.33" departLane="best" from="4610476#3" to="339201177#1" type="passenger"/>
    <trip id="veh106" depart="1886.12" departLane="best" from="23852053#1" to="77348147" type="passenger"/>
    <trip id="veh107" depart="1903.91" departLane="best" from="25302636#2" to="-136571494#0" type="passenger"/>
    <trip id="veh108" depart="1921.71" departLane="best" from="4610362#7" to="122820534#1" type="passenger"/>
    <trip id="veh109" depart="1939.50" departLane="best" from="28016312#0" to="55741054" type="passenger"/>
    <trip id="veh110" depart="1957.29" departLane="best" from="-194963395" to="234463931#5" type="passenger"/>
    <trip id="veh111" depart="1975.09" departLane="best" from="339201177#4" to="-316746323#0" type="passenger"/>
    <trip id="veh114" depart="2028.47" departLane="best" from="-122820534#1" to="4610362#2" type="passenger"/>
    <trip id="veh116" depart="2064.06" departLane="best" from="340498976#2" to="234463931#5" type="passenger"/>
    <trip id="veh117" depart="2081.85" departLane="best" from="156364556#0" to="-136571494#0" type="passenger"/>
    <trip id="veh118" depart="2099.64" departLane="best" from="-188914559" to="490365295#1" type="passenger"/>
    <trip id="veh120" depart="2135.23" departLane="best" from="4610362#0" to="4773465#0" type="passenger"/>
    <trip id="veh122" depart="2170.82" departLane="best" from="4610351#0" to="490365295#3" type="passenger"/>
    <trip id="veh123" depart="2188.61" departLane="best" from="137630045" to="24913519#2" type="passenger"/>
    <trip id="veh124" depart="2206.40" departLane="best" from="-234463931#1" to="541763974" type="passenger"/>
    <trip id="veh125" depart="2224.20" departLane="best" from="4773465#0" to="61584187#4" type="passenger"/>
    <trip id="veh126" depart="2241.99" departLane="best" from="4610362#5" to="490365295#1" type="passenger"/>
    <trip id="veh127" depart="2259.79" departLane="best" from="-156364570#1" to="340498976#7" type="passenger"/>
    <trip id="veh128" depart="2277.58" departLane="best" from="-55741054" to="541763975" type="passenger"/>
    <trip id="veh129" depart="2295.37" departLane="best" from="4610362#2" to="4773465#1" type="passenger"/>
    <trip id="veh131" depart="2330.96" departLane="best" from="4610351#0" to="-23121445#2" type="passenger"/>
    <trip id="veh132" depart="2348.75" departLane="best" from="4773465#3" to="46140382" type="passenger"/>
    <trip id="veh133" depart="2366.55" departLane="best" from="-25302636#2" to="4610476#3" type="passenger"/>
    <trip id="veh134" depart="2384.34" departLane="best" from="15971197#1" to="136571494#2" type="passenger"/>
    <trip id="veh135" depart="2402.13" departLane="best" from="4610351#2" to="-387892378" type="passenger"/>
    <trip id="veh136" depart="2419.93" departLane="best" from="-156364570#1" to="-31313667#0" type="passenger"/>
    <trip id="veh137" depart="2437.72" departLane="best" from="-55741054" to="4773465#1" type="passenger"/>
    <trip id="veh138" depart="2455.51" departLane="best" from="24914992#1" to="169195795#6" type="passenger"/>
    <trip id="veh139" depart="2473.31" departLane="best" from="83517332#0" to="23121445#5" type="passenger"/>
    <trip id="veh140" depart="2491.10" departLane="best" from="606078069#0" to="-23121445#4" type="passenger"/>
    <trip id="veh142" depart="2526.69" departLane="best" from="-194963395" to="183415643" type="passenger"/>
    <trip id="veh143" depart="2544.48" departLane="best" from="340498976#0" to="156364553#1" type="passenger"/>
    <trip id="veh144" depart="2562.28" departLane="best" from="136571494#0" to="23852053#1" type="passenger"/>
    <trip id="veh145" depart="2580.07" departLane="best" from="-122820534#0" to="54048863" type="passenger"/>
    <trip id="veh146" depart="2597.86" departLane="best" from="202157002#4" to="340498976#10" type="passenger"/>
    <trip id="veh147" depart="2615.66" departLane="best" from="340498976#3" to="30721660#4" type="passenger"/>
    <trip id="veh148" depart="2633.45" departLane="best" from="28016312#1" to="15971189" type="passenger"/>
    <trip id="veh150" depart="2669.04" departLane="best" from="340498976#0" to="136571494#1" type="passenger"/>
    <trip id="veh152" depart="2704.62" departLane="best" from="136571494#4" to="114667396#2" type="passenger"/>
    <trip id="veh153" depart="2722.42" departLane="best" from="-23121444" to="171826984#4" type="passenger"/>
    <trip id="veh154" depart="2740.21" departLane="best" from="606078069#3" to="30721662#0" type="passenger"/>
    <trip id="veh156" depart="2775.80" departLane="best" from="-122820534#0" to="-84960595" type="passenger"/>
    <trip id="veh157" depart="2793.59" departLane="best" from="156364556#1" to="24243092#0" type="passenger"/>
    <trip id="veh160" depart="2846.97" departLane="best" from="4610362#0" to="-24243107#0" type="passenger"/>
    <trip id="veh161" depart="2864.77" departLane="best" from="-188914559" to="23013165#2" type="passenger"/>
    <trip id="veh163" depart="2900.35" departLane="best" from="-24243107#2" to="-136571494#3" type="passenger"/>
    <trip id="veh164" depart="2918.15" departLane="best" from="-316746323#2" to="194963395" type="passenger"/>
    <trip id="veh165" depart="2935.94" departLane="best" from="4611698#1" to="-168937986#2" type="passenger"/>
    <trip id="veh166" depart="2953.73" departLane="best" from="156364553#0" to="25294729#1" type="passenger"/>
    <trip id="veh167" depart="2971.53" departLane="best" from="-24243107#2" to="31313667#3" type="passenger"/>
    <trip id="veh168" depart="2989.32" departLane="best" from="169195795#4" to="-48664717#0" type="passenger"/>
    <trip id="veh169" depart="3007.12" departLane="best" from="25302636#3" to="-122820534#1" type="passenger"/>
    <trip id="veh170" depart="3024.91" departLane="best" from="340498976#6" to="4610362#2" type="passenger"/>
    <trip id="veh171" depart="3042.70" departLane="best" from="-194963395" to="171826984#4" type="passenger"/>
    <trip id="veh172" depart="3060.50" departLane="best" from="-23809670#5" to="606078071#0" type="passenger"/>
    <trip id="veh173" depart="3078.29" departLane="best" from="195397541#1" to="-156364570#0" type="passenger"/>
    <trip id="veh174" depart="3096.08" departLane="best" from="-339201177#0" to="46140376#1" type="passenger"/>
    <trip id="veh175" depart="3113.88" departLane="best" from="15971196#0" to="4610472" type="passenger"/>
    <trip id="veh176" depart="3131.67" departLane="best" from="23809670#2" to="562707499" type="passenger"/>
    <trip id="veh177" depart="3149.46" departLane="best" from="340498976#0" to="22972219#0" type="passenger"/>
    <trip id="veh178" depart="3167.26" departLane="best" from="4610476#2" to="234463931#3" type="passenger"/>
    <trip id="veh181" depart="3220.64" departLane="best" from="-339201177#0" to="25294729#1" type="passenger"/>
    <trip id="veh182" depart="3238.43" departLane="best" from="35578559" to="23121445#0" type="passenger"/>
    <trip id="veh183" depart="3256.23" departLane="best" from="24914992#0" to="-562707499" type="passenger"/>
    <trip id="veh184" depart="3274.02" departLane="best" from="-188914559" to="-84960595" type="passenger"/>
    <trip id="veh185" depart="3291.81" departLane="best" from="-4610375" to="156364556#1" type="passenger"/>
    <trip id="veh186" depart="3309.61" departLane="best" from="202157002#4" to="-23809670#0" type="passenger"/>
    <trip id="veh187" depart="3327.40" departLane="best" from="-28016312#3" to="31313667#3" type="passenger"/>
    <trip id="veh188" depart="3345.19" departLane="best" from="316746323#1" to="-15977422#1" type="passenger"/>
    <trip id="veh189" depart="3362.99" departLane="best" from="137630045" to="234463931#2" type="passenger"/>
    <trip id="veh190" depart="3380.78" departLane="best" from="156364553#0" to="-316746323#2" type="passenger"/>
    <trip id="veh192" depart="3416.37" departLane="best" from="234463931#4" to="31313667#3" type="passenger"/>
    <trip id="veh193" depart="3434.16" departLane="best" from="122820534#1" to="-136571494#0" type="passenger"/>
    <trip id="veh194" depart="3451.96" departLane="best" from="4611699" to="606078069#3" type="passenger"/>
    <trip id="veh195" depart="3469.75" departLane="best" from="156364553#0" to="35578559" type="passenger"/>
    <trip id="veh196" depart="3487.54" departLane="best" from="23013165#1" to="24243107#2" type="passenger"/>
    <trip id="veh197" depart="3505.34" departLane="best" from="-25302636#1" to="-339201177#4" type="passenger"/>
    <trip id="veh198" depart="3523.13" departLane="best" from="156364570#2" to="-136571494#5" type="passenger"/>
    <trip id="veh199" depart="3540.92" departLane="best" from="-55741054" to="30721662#0" type="passenger"/>
    <trip id="veh200" depart="3558.72" departLane="best" from="136571494#4" to="-23809670#5" type="passenger"/>
    <trip id="veh201" depart="3576.51" departLane="best" from="15977422#1" to="-234463931#1" type="passenger"/>
    <trip id="veh202" depart="3594.30" departLane="best" from="136571494#0" to="23809670#3" type="passenger"/>
</routes>
