<?xml version="1.0" encoding="UTF-8"?>

<!-- generated on Sat Dec  8 18:24:49 2018 by SUMO netconvert Version 0.30.0
<?xml version="1.0" encoding="UTF-8"?>

<configuration xmlns:xsi="http://www.w3.org/2001/XMLSchema-instance" xsi:noNamespaceSchemaLocation="http://sumo.dlr.de/xsd/netconvertConfiguration.xsd">

    <input>
        <type-files value="/home/jordan/Downloads/sumo-0.30.0/data/typemap/osmNetconvert.typ.xml"/>
        <osm-files value="osm_bbox.osm.xml"/>
    </input>

    <output>
        <output-file value="/home/jordan/Downloads/sumo-0.30.0/tools/2018-12-08-18-24-46/osm.net.xml"/>
        <output.street-names value="true"/>
        <output.original-names value="true"/>
    </output>

    <projection>
        <proj.utm value="true"/>
    </projection>

    <tls_building>
        <tls.discard-simple value="true"/>
        <tls.join value="true"/>
        <tls.guess-signals value="true"/>
    </tls_building>

    <ramp_guessing>
        <ramps.guess value="true"/>
    </ramp_guessing>

    <processing>
        <geometry.remove value="true"/>
        <roundabouts.guess value="true"/>
        <junctions.join value="true"/>
        <junctions.corner-detail value="5"/>
    </processing>

    <report>
        <verbose value="true"/>
    </report>

</configuration>
-->

<net version="0.27" junctionCornerDetail="5" xmlns:xsi="http://www.w3.org/2001/XMLSchema-instance" xsi:noNamespaceSchemaLocation="http://sumo.dlr.de/xsd/net_file.xsd">

    <location netOffset="-390585.70,-5819657.56" convBoundary="0.00,0.00,1502.64,1136.87" origBoundary="13.372213,52.514766,13.409575,52.526258" projParameter="+proj=utm +zone=33 +ellps=WGS84 +datum=WGS84 +units=m +no_defs"/>

    <type id="highway.bridleway" priority="1" numLanes="1" speed="2.78" allow="pedestrian" oneway="1" width="2.00"/>
    <type id="highway.bus_guideway" priority="1" numLanes="1" speed="8.33" allow="bus" oneway="1"/>
    <type id="highway.cycleway" priority="1" numLanes="1" speed="5.56" allow="bicycle" oneway="0" width="1.00"/>
    <type id="highway.footway" priority="1" numLanes="1" speed="2.78" allow="pedestrian" oneway="1" width="2.00"/>
    <type id="highway.ford" priority="1" numLanes="1" speed="2.78" allow="army" oneway="0"/>
    <type id="highway.living_street" priority="3" numLanes="1" speed="2.78" disallow="tram rail_urban rail rail_electric ship" oneway="0"/>
    <type id="highway.motorway" priority="13" numLanes="2" speed="44.44" allow="private emergency authority army vip passenger hov taxi bus coach delivery truck trailer motorcycle evehicle custom1 custom2" oneway="1"/>
    <type id="highway.motorway_link" priority="12" numLanes="1" speed="22.22" allow="private emergency authority army vip passenger hov taxi bus coach delivery truck trailer motorcycle evehicle custom1 custom2" oneway="1"/>
    <type id="highway.path" priority="1" numLanes="1" speed="2.78" allow="bicycle pedestrian" oneway="1" width="2.00"/>
    <type id="highway.pedestrian" priority="1" numLanes="1" speed="2.78" allow="pedestrian" oneway="1" width="2.00"/>
    <type id="highway.primary" priority="9" numLanes="2" speed="27.78" disallow="tram rail_urban rail rail_electric ship" oneway="0"/>
    <type id="highway.primary_link" priority="8" numLanes="1" speed="22.22" disallow="tram rail_urban rail rail_electric ship" oneway="0"/>
    <type id="highway.raceway" priority="14" numLanes="2" speed="83.33" allow="vip" oneway="0"/>
    <type id="highway.residential" priority="4" numLanes="1" speed="13.89" disallow="tram rail_urban rail rail_electric ship" oneway="0"/>
    <type id="highway.secondary" priority="7" numLanes="2" speed="27.78" disallow="tram rail_urban rail rail_electric ship" oneway="0"/>
    <type id="highway.secondary_link" priority="6" numLanes="1" speed="22.22" disallow="tram rail_urban rail rail_electric ship" oneway="0"/>
    <type id="highway.service" priority="2" numLanes="1" speed="5.56" allow="delivery bicycle pedestrian" oneway="0"/>
    <type id="highway.services" priority="1" numLanes="1" speed="8.33" disallow="tram rail_urban rail rail_electric ship" oneway="0"/>
    <type id="highway.stairs" priority="1" numLanes="1" speed="1.39" allow="pedestrian" oneway="1" width="2.00"/>
    <type id="highway.step" priority="1" numLanes="1" speed="1.39" allow="pedestrian" oneway="1" width="2.00"/>
    <type id="highway.steps" priority="1" numLanes="1" speed="1.39" allow="pedestrian" oneway="1" width="2.00"/>
    <type id="highway.tertiary" priority="6" numLanes="1" speed="22.22" disallow="tram rail_urban rail rail_electric ship" oneway="0"/>
    <type id="highway.tertiary_link" priority="5" numLanes="1" speed="22.22" disallow="tram rail_urban rail rail_electric ship" oneway="0"/>
    <type id="highway.track" priority="1" numLanes="1" speed="5.56" disallow="tram rail_urban rail rail_electric ship" oneway="0"/>
    <type id="highway.trunk" priority="11" numLanes="2" speed="27.78" disallow="tram rail_urban rail rail_electric bicycle pedestrian ship" oneway="0"/>
    <type id="highway.trunk_link" priority="10" numLanes="1" speed="22.22" disallow="tram rail_urban rail rail_electric bicycle pedestrian ship" oneway="0"/>
    <type id="highway.unclassified" priority="5" numLanes="1" speed="13.89" disallow="tram rail_urban rail rail_electric ship" oneway="0"/>
    <type id="highway.unsurfaced" priority="1" numLanes="1" speed="8.33" disallow="tram rail_urban rail rail_electric ship" oneway="0"/>
    <type id="railway.light_rail" priority="15" numLanes="1" speed="27.78" allow="rail_urban" oneway="1"/>
    <type id="railway.preserved" priority="15" numLanes="1" speed="27.78" allow="rail" oneway="1"/>
    <type id="railway.rail" priority="15" numLanes="1" speed="83.33" allow="rail rail_electric" oneway="1"/>
    <type id="railway.subway" priority="15" numLanes="1" speed="27.78" allow="rail_urban" oneway="1"/>
    <type id="railway.tram" priority="15" numLanes="1" speed="13.89" allow="tram" oneway="1"/>

    <edge id=":1075544310_0" function="internal">
        <lane id=":1075544310_0_0" index="0" disallow="tram rail_urban rail rail_electric ship" speed="8.33" length="4.82" shape="469.40,728.32 469.79,726.88 470.44,726.23 471.35,726.35 472.53,727.26"/>
    </edge>
    <edge id=":1157325170_0" function="internal">
        <lane id=":1157325170_0_0" index="0" allow="tram" speed="13.89" length="5.44" shape="1110.41,505.94 1113.68,501.58"/>
    </edge>
    <edge id=":1157325174_0" function="internal">
        <lane id=":1157325174_0_0" index="0" disallow="tram rail_urban rail rail_electric ship" speed="13.89" length="4.99" shape="1124.55,508.75 1121.52,512.67"/>
        <lane id=":1157325174_0_1" index="1" disallow="tram rail_urban rail rail_electric ship" speed="13.89" length="4.99" shape="1121.96,506.71 1118.89,510.67"/>
    </edge>
    <edge id=":1208647794_0" function="internal">
        <lane id=":1208647794_0_0" index="0" disallow="tram rail_urban rail rail_electric ship" speed="8.33" length="5.31" shape="597.76,398.01 596.42,398.41 595.32,399.08 594.45,400.01 593.82,401.20"/>
    </edge>
    <edge id=":1208647794_1" function="internal">
        <lane id=":1208647794_1_0" index="0" disallow="tram rail_urban rail rail_electric ship" speed="8.33" length="4.82" shape="597.76,398.01 596.39,397.42 595.84,396.69 596.09,395.80 597.15,394.76"/>
    </edge>
    <edge id=":1208647794_2" function="internal">
        <lane id=":1208647794_2_0" index="0" disallow="tram rail_urban rail rail_electric ship" speed="8.33" length="4.91" shape="593.45,392.43 593.97,393.66 594.76,394.46 595.82,394.82 597.15,394.76"/>
    </edge>
    <edge id=":1208647794_3" function="internal">
        <lane id=":1208647794_3_0" index="0" disallow="tram rail_urban rail rail_electric ship" speed="8.33" length="9.05" shape="593.45,392.43 594.21,395.01 594.66,396.87 594.59,398.70 593.82,401.20"/>
    </edge>
    <edge id=":1210473765_0" function="internal">
        <lane id=":1210473765_0_0" index="0" disallow="tram rail_urban rail rail_electric ship" speed="6.95" length="2.16" shape="362.93,829.07 362.65,828.57 362.27,828.23 361.80,828.07 361.22,828.07"/>
    </edge>
    <edge id=":1210473765_1" function="internal">
        <lane id=":1210473765_1_0" index="0" allow="delivery bicycle pedestrian" speed="5.56" length="4.82" shape="362.93,829.07 363.25,827.62 363.86,826.93 364.78,827.02 366.00,827.87"/>
    </edge>
    <edge id=":1210473765_2" function="internal">
        <lane id=":1210473765_2_0" index="0" allow="delivery bicycle pedestrian" speed="6.95" length="6.61" shape="360.77,824.80 362.53,824.79 363.99,825.30 365.14,826.33 366.00,827.87"/>
    </edge>
    <edge id=":1210473765_3" function="internal">
        <lane id=":1210473765_3_0" index="0" disallow="tram rail_urban rail rail_electric ship" speed="8.33" length="4.82" shape="360.77,824.80 362.10,825.45 362.63,826.21 362.33,827.08 361.22,828.07"/>
    </edge>
    <edge id=":1210473819_0" function="internal">
        <lane id=":1210473819_0_0" index="0" allow="delivery bicycle pedestrian" speed="5.56" length="4.82" shape="402.65,934.96 402.26,936.40 401.61,937.05 400.70,936.93 399.52,936.02"/>
    </edge>
    <edge id=":1217651538_0" function="internal">
        <lane id=":1217651538_0_0" index="0" disallow="tram rail_urban rail rail_electric ship" speed="6.95" length="5.16" shape="487.59,542.34 486.32,541.62 485.13,541.45 484.04,541.81 483.04,542.72"/>
    </edge>
    <edge id=":1217651538_1" function="internal">
        <lane id=":1217651538_1_0" index="0" disallow="tram rail_urban rail rail_electric ship" speed="6.95" length="10.53" shape="487.59,542.34 485.57,540.30 484.71,538.11 485.01,535.74 486.48,533.22"/>
    </edge>
    <edge id=":1217651538_2" function="internal">
        <lane id=":1217651538_2_0" index="0" allow="delivery bicycle pedestrian" speed="5.56" length="4.82" shape="487.59,542.34 487.09,540.94 487.26,540.03 488.08,539.62 489.57,539.70"/>
    </edge>
    <edge id=":1217651538_3" function="internal">
        <lane id=":1217651538_3_0" index="0" allow="delivery bicycle pedestrian" speed="6.95" length="5.06" shape="489.02,535.32 488.32,536.53 488.18,537.66 488.60,538.72 489.57,539.70"/>
    </edge>
    <edge id=":1217651538_4" function="internal">
        <lane id=":1217651538_4_0" index="0" disallow="tram rail_urban rail rail_electric ship" speed="8.33" length="9.52" shape="489.02,535.32 483.04,542.72"/>
    </edge>
    <edge id=":1217651538_5" function="internal">
        <lane id=":1217651538_5_0" index="0" disallow="tram rail_urban rail rail_electric ship" speed="8.33" length="2.41" shape="489.02,535.32 487.60,535.75 486.70,535.54"/>
    </edge>
    <edge id=":1217651538_9" function="internal">
        <lane id=":1217651538_9_0" index="0" speed="8.33" length="2.41" shape="486.70,535.54 486.32,534.70 486.48,533.22"/>
    </edge>
    <edge id=":1217651538_6" function="internal">
        <lane id=":1217651538_6_0" index="0" disallow="tram rail_urban rail rail_electric ship" speed="8.33" length="9.55" shape="480.47,540.64 486.48,533.22"/>
    </edge>
    <edge id=":1217651538_7" function="internal">
        <lane id=":1217651538_7_0" index="0" allow="delivery bicycle pedestrian" speed="6.95" length="5.10" shape="480.47,540.64 482.51,538.77 484.71,537.99"/>
    </edge>
    <edge id=":1217651538_8" function="internal">
        <lane id=":1217651538_8_0" index="0" disallow="tram rail_urban rail rail_electric ship" speed="8.33" length="2.41" shape="480.47,540.64 481.89,540.20 482.79,540.40"/>
    </edge>
    <edge id=":1217651538_10" function="internal">
        <lane id=":1217651538_10_0" index="0" speed="6.95" length="5.25" shape="484.71,537.99 487.06,538.30 489.57,539.70"/>
    </edge>
    <edge id=":1217651538_11" function="internal">
        <lane id=":1217651538_11_0" index="0" speed="8.33" length="2.41" shape="482.79,540.40 483.18,541.24 483.04,542.72"/>
    </edge>
    <edge id=":1275468904_0" function="internal">
        <lane id=":1275468904_0_0" index="0" disallow="tram rail_urban rail rail_electric ship" speed="13.89" length="4.95" shape="1335.31,756.63 1333.37,752.07"/>
    </edge>
    <edge id=":1275468904_1" function="internal">
        <lane id=":1275468904_1_0" index="0" disallow="tram rail_urban rail rail_electric ship" speed="13.89" length="2.41" shape="1335.31,756.63 1335.59,755.17 1336.19,754.47"/>
    </edge>
    <edge id=":1275468904_4" function="internal">
        <lane id=":1275468904_4_0" index="0" speed="13.89" length="2.41" shape="1336.19,754.47 1337.11,754.53 1338.35,755.35"/>
    </edge>
    <edge id=":1275468904_2" function="internal">
        <lane id=":1275468904_2_0" index="0" disallow="tram rail_urban rail rail_electric ship" speed="13.89" length="4.99" shape="1336.39,750.76 1338.35,755.35"/>
    </edge>
    <edge id=":1275468904_3" function="internal">
        <lane id=":1275468904_3_0" index="0" disallow="tram rail_urban rail rail_electric ship" speed="13.89" length="2.41" shape="1336.39,750.76 1336.13,752.22 1335.54,752.93"/>
    </edge>
    <edge id=":1275468904_5" function="internal">
        <lane id=":1275468904_5_0" index="0" speed="13.89" length="2.41" shape="1335.54,752.93 1334.61,752.88 1333.37,752.07"/>
    </edge>
    <edge id=":1371317063_0" function="internal">
        <lane id=":1371317063_0_0" index="0" disallow="tram rail_urban rail rail_electric ship" speed="8.33" length="5.30" shape="632.34,328.97 627.78,326.27"/>
    </edge>
    <edge id=":1371317063_1" function="internal">
        <lane id=":1371317063_1_0" index="0" disallow="tram rail_urban rail rail_electric ship" speed="8.33" length="4.82" shape="632.34,328.97 631.68,327.64 631.73,326.71 632.50,326.21 633.99,326.11"/>
    </edge>
    <edge id=":1371317063_2" function="internal">
        <lane id=":1371317063_2_0" index="0" disallow="tram rail_urban rail rail_electric ship" speed="8.33" length="5.25" shape="629.47,323.44 633.99,326.11"/>
    </edge>
    <edge id=":1371317063_3" function="internal">
        <lane id=":1371317063_3_0" index="0" disallow="tram rail_urban rail rail_electric ship" speed="8.33" length="4.82" shape="629.47,323.44 630.11,324.78 630.04,325.70 629.27,326.20 627.78,326.27"/>
    </edge>
    <edge id=":1449754450_0" function="internal">
        <lane id=":1449754450_0_0" index="0" allow="delivery bicycle pedestrian" speed="5.56" length="5.13" shape="574.31,338.01 572.92,337.67 571.80,337.87 570.95,338.62 570.36,339.92"/>
    </edge>
    <edge id=":1449754450_1" function="internal">
        <lane id=":1449754450_1_0" index="0" allow="delivery bicycle pedestrian" speed="5.56" length="9.54" shape="574.31,338.01 565.48,334.41"/>
    </edge>
    <edge id=":1449754450_2" function="internal">
        <lane id=":1449754450_2_0" index="0" allow="delivery bicycle pedestrian" speed="5.56" length="4.82" shape="574.31,338.01 573.47,336.78 573.40,335.86 574.10,335.25 575.55,334.96"/>
    </edge>
    <edge id=":1449754450_3" function="internal">
        <lane id=":1449754450_3_0" index="0" allow="delivery bicycle pedestrian" speed="5.56" length="9.54" shape="566.72,331.35 575.55,334.96"/>
    </edge>
    <edge id=":1449754450_4" function="internal">
        <lane id=":1449754450_4_0" index="0" allow="delivery bicycle pedestrian" speed="5.56" length="10.38" shape="566.72,331.35 569.00,332.73 570.37,334.61 570.82,337.01 570.36,339.92"/>
    </edge>
    <edge id=":1449754450_5" function="internal">
        <lane id=":1449754450_5_0" index="0" allow="delivery bicycle pedestrian" speed="5.56" length="4.82" shape="566.72,331.35 567.56,332.58 567.63,333.50 566.93,334.11 565.48,334.41"/>
    </edge>
    <edge id=":1449754450_6" function="internal">
        <lane id=":1449754450_6_0" index="0" allow="delivery bicycle pedestrian" speed="5.56" length="5.46" shape="567.19,339.01 567.46,337.41 567.26,336.11 566.60,335.11 565.48,334.41"/>
    </edge>
    <edge id=":1449754450_7" function="internal">
        <lane id=":1449754450_7_0" index="0" allow="delivery bicycle pedestrian" speed="5.56" length="10.87" shape="567.19,339.01 568.44,336.25 570.24,334.66 572.62,334.23 575.55,334.96"/>
    </edge>
    <edge id=":1449754450_8" function="internal">
        <lane id=":1449754450_8_0" index="0" allow="delivery bicycle pedestrian" speed="5.56" length="4.82" shape="567.19,339.01 568.32,338.05 569.23,337.88 569.91,338.51 570.36,339.92"/>
    </edge>
    <edge id=":1457124706_0" function="internal">
        <lane id=":1457124706_0_0" index="0" allow="delivery bicycle pedestrian" speed="5.56" length="4.82" shape="554.39,284.36 555.34,283.21 556.20,282.88 556.98,283.38 557.68,284.69"/>
    </edge>
    <edge id=":1457124739_0" function="internal">
        <lane id=":1457124739_0_0" index="0" allow="delivery bicycle pedestrian" speed="5.56" length="8.94" shape="554.80,330.05 552.74,328.88 551.35,327.30 550.61,325.33 550.54,322.97"/>
    </edge>
    <edge id=":1457124739_1" function="internal">
        <lane id=":1457124739_1_0" index="0" allow="delivery bicycle pedestrian" speed="5.56" length="4.82" shape="554.80,330.05 553.97,328.82 553.90,327.90 554.59,327.29 556.05,326.99"/>
    </edge>
    <edge id=":1457124739_2" function="internal">
        <lane id=":1457124739_2_0" index="0" allow="delivery bicycle pedestrian" speed="5.56" length="4.67" shape="553.82,323.29 553.86,324.53 554.24,325.56 554.97,326.38 556.05,326.99"/>
    </edge>
    <edge id=":1457124739_3" function="internal">
        <lane id=":1457124739_3_0" index="0" allow="delivery bicycle pedestrian" speed="5.56" length="4.82" shape="553.82,323.29 552.88,324.44 552.01,324.77 551.23,324.28 550.54,322.97"/>
    </edge>
    <edge id=":1457124764_0" function="internal">
        <lane id=":1457124764_0_0" index="0" allow="delivery bicycle pedestrian" speed="5.56" length="4.82" shape="596.16,343.38 597.00,344.61 597.07,345.53 596.37,346.14 594.92,346.43"/>
    </edge>
    <edge id=":1472911019_0" function="internal">
        <lane id=":1472911019_0_0" index="0" disallow="tram rail_urban rail rail_electric ship" speed="13.89" length="4.99" shape="989.60,276.48 985.33,273.88"/>
        <lane id=":1472911019_0_1" index="1" disallow="tram rail_urban rail rail_electric ship" speed="13.89" length="4.99" shape="991.31,273.66 987.05,271.06"/>
    </edge>
    <edge id=":1473258656_0" function="internal">
        <lane id=":1473258656_0_0" index="0" allow="delivery bicycle pedestrian" speed="4.17" length="5.47" shape="769.90,413.49 768.68,412.97 767.48,413.00 766.30,413.59 765.14,414.73"/>
    </edge>
    <edge id=":1473258656_1" function="internal">
        <lane id=":1473258656_1_0" index="0" disallow="tram rail_urban rail rail_electric ship" speed="2.78" length="9.54" shape="769.90,413.49 761.88,408.33"/>
    </edge>
    <edge id=":1473258656_2" function="internal">
        <lane id=":1473258656_2_0" index="0" disallow="tram rail_urban rail rail_electric ship" speed="2.78" length="2.41" shape="769.90,413.49 769.31,412.12 769.41,411.21"/>
    </edge>
    <edge id=":1473258656_9" function="internal">
        <lane id=":1473258656_9_0" index="0" speed="2.78" length="2.41" shape="769.41,411.21 770.20,410.73 771.69,410.71"/>
    </edge>
    <edge id=":1473258656_3" function="internal">
        <lane id=":1473258656_3_0" index="0" disallow="tram rail_urban rail rail_electric ship" speed="2.78" length="9.54" shape="763.66,405.55 771.69,410.71"/>
    </edge>
    <edge id=":1473258656_4" function="internal">
        <lane id=":1473258656_4_0" index="0" allow="delivery bicycle pedestrian" speed="4.17" length="5.44" shape="763.66,405.55 765.95,407.54 766.96,409.73"/>
    </edge>
    <edge id=":1473258656_5" function="internal">
        <lane id=":1473258656_5_0" index="0" disallow="tram rail_urban rail rail_electric ship" speed="2.78" length="2.41" shape="763.66,405.55 764.25,406.92 764.16,407.83"/>
    </edge>
    <edge id=":1473258656_10" function="internal">
        <lane id=":1473258656_10_0" index="0" speed="4.17" length="5.44" shape="766.96,409.73 766.69,412.13 765.14,414.73"/>
    </edge>
    <edge id=":1473258656_11" function="internal">
        <lane id=":1473258656_11_0" index="0" speed="2.78" length="2.41" shape="764.16,407.83 763.36,408.30 761.88,408.33"/>
    </edge>
    <edge id=":1473258656_6" function="internal">
        <lane id=":1473258656_6_0" index="0" disallow="tram rail_urban rail rail_electric ship" speed="4.17" length="5.13" shape="762.58,412.66 763.31,411.43 763.43,410.30 762.96,409.27 761.88,408.33"/>
    </edge>
    <edge id=":1473258656_7" function="internal">
        <lane id=":1473258656_7_0" index="0" disallow="tram rail_urban rail rail_electric ship" speed="4.17" length="10.38" shape="762.58,412.66 764.70,410.61 766.93,409.60 769.26,409.64 771.69,410.71"/>
    </edge>
    <edge id=":1473258656_8" function="internal">
        <lane id=":1473258656_8_0" index="0" allow="delivery bicycle pedestrian" speed="5.56" length="4.82" shape="762.58,412.66 763.99,412.21 764.90,412.41 765.28,413.25 765.14,414.73"/>
    </edge>
    <edge id=":1473258657_0" function="internal">
        <lane id=":1473258657_0_0" index="0" allow="bicycle pedestrian" speed="2.78" length="5.01" width="2.00" shape="751.39,412.19 755.57,414.96"/>
    </edge>
    <edge id=":1473258657_1" function="internal">
        <lane id=":1473258657_1_0" index="0" allow="bicycle pedestrian" speed="2.78" length="4.12" width="2.00" shape="751.97,415.65 752.78,414.85 753.65,414.46 754.58,414.50 755.57,414.96"/>
    </edge>
    <edge id=":1473258660_0" function="internal">
        <lane id=":1473258660_0_0" index="0" allow="bicycle pedestrian" speed="4.17" length="4.58" width="2.00" shape="763.36,417.00 762.85,418.01 762.86,418.99 763.39,419.92 764.45,420.81"/>
    </edge>
    <edge id=":1473258660_1" function="internal">
        <lane id=":1473258660_1_0" index="0" allow="delivery bicycle pedestrian" speed="5.56" length="5.40" shape="763.36,417.00 760.13,421.31"/>
    </edge>
    <edge id=":1473258660_2" function="internal">
        <lane id=":1473258660_2_0" index="0" allow="delivery bicycle pedestrian" speed="5.56" length="2.41" shape="763.36,417.00 761.96,417.49 761.05,417.33"/>
    </edge>
    <edge id=":1473258660_9" function="internal">
        <lane id=":1473258660_9_0" index="0" speed="5.56" length="2.41" shape="761.05,417.33 760.64,416.50 760.72,415.02"/>
    </edge>
    <edge id=":1473258660_3" function="internal">
        <lane id=":1473258660_3_0" index="0" allow="delivery bicycle pedestrian" speed="4.17" length="4.88" shape="756.41,415.51 757.67,416.14 758.80,416.26 759.82,415.89 760.72,415.02"/>
    </edge>
    <edge id=":1473258660_4" function="internal">
        <lane id=":1473258660_4_0" index="0" allow="bicycle pedestrian" speed="2.78" length="9.63" width="2.00" shape="756.41,415.51 764.45,420.81"/>
    </edge>
    <edge id=":1473258660_5" function="internal">
        <lane id=":1473258660_5_0" index="0" allow="delivery bicycle pedestrian" speed="4.17" length="7.60" shape="756.41,415.51 758.66,417.21 760.03,418.75 760.52,420.11 760.13,421.31"/>
    </edge>
    <edge id=":1473258660_6" function="internal">
        <lane id=":1473258660_6_0" index="0" allow="delivery bicycle pedestrian" speed="5.56" length="5.39" shape="757.49,419.33 760.72,415.02"/>
    </edge>
    <edge id=":1473258660_7" function="internal">
        <lane id=":1473258660_7_0" index="0" allow="bicycle pedestrian" speed="4.17" length="2.73" width="2.00" shape="757.49,419.33 758.51,418.65 760.01,418.67"/>
    </edge>
    <edge id=":1473258660_8" function="internal">
        <lane id=":1473258660_8_0" index="0" allow="delivery bicycle pedestrian" speed="5.56" length="2.41" shape="757.49,419.33 758.89,418.84 759.80,419.00"/>
    </edge>
    <edge id=":1473258660_10" function="internal">
        <lane id=":1473258660_10_0" index="0" speed="4.17" length="4.95" width="2.00" shape="760.01,418.67 761.99,419.39 764.45,420.81"/>
    </edge>
    <edge id=":1473258660_11" function="internal">
        <lane id=":1473258660_11_0" index="0" speed="5.56" length="2.41" shape="759.80,419.00 760.21,419.83 760.13,421.31"/>
    </edge>
    <edge id=":1473258664_0" function="internal">
        <lane id=":1473258664_0_0" index="0" allow="delivery bicycle pedestrian" speed="4.17" length="10.17" shape="821.84,442.84 823.94,444.64 824.99,446.70 824.98,449.01 823.91,451.57"/>
    </edge>
    <edge id=":1473258664_1" function="internal">
        <lane id=":1473258664_1_0" index="0" disallow="tram rail_urban rail rail_electric ship" speed="2.78" length="4.82" shape="821.84,442.84 822.44,444.20 822.34,445.11 821.55,445.59 820.06,445.62"/>
    </edge>
    <edge id=":1473258664_2" function="internal">
        <lane id=":1473258664_2_0" index="0" disallow="tram rail_urban rail rail_electric ship" speed="4.17" length="4.96" shape="821.07,449.88 821.59,448.63 821.60,447.50 821.09,446.50 820.06,445.62"/>
    </edge>
    <edge id=":1473258664_3" function="internal">
        <lane id=":1473258664_3_0" index="0" allow="delivery bicycle pedestrian" speed="5.56" length="4.82" shape="821.07,449.88 822.41,449.24 823.33,449.31 823.83,450.08 823.91,451.57"/>
    </edge>
    <edge id=":1473258672_0" function="internal">
        <lane id=":1473258672_0_0" index="0" allow="delivery bicycle pedestrian" speed="5.56" length="10.29" shape="737.35,457.12 735.36,455.13 734.48,452.97 734.71,450.66 736.06,448.18"/>
    </edge>
    <edge id=":1473258672_1" function="internal">
        <lane id=":1473258672_1_0" index="0" allow="delivery bicycle pedestrian" speed="5.56" length="4.82" shape="737.35,457.12 736.86,455.72 737.02,454.81 737.85,454.40 739.33,454.48"/>
    </edge>
    <edge id=":1473258672_2" function="internal">
        <lane id=":1473258672_2_0" index="0" allow="delivery bicycle pedestrian" speed="5.56" length="4.99" shape="738.71,450.15 738.05,451.35 737.94,452.47 738.37,453.52 739.33,454.48"/>
    </edge>
    <edge id=":1473258672_3" function="internal">
        <lane id=":1473258672_3_0" index="0" allow="delivery bicycle pedestrian" speed="5.56" length="4.82" shape="738.71,450.15 737.31,450.65 736.40,450.49 735.98,449.66 736.06,448.18"/>
    </edge>
    <edge id=":1473258678_0" function="internal">
        <lane id=":1473258678_0_0" index="0" allow="bicycle pedestrian" speed="4.17" length="4.57" width="2.00" shape="821.43,455.18 820.91,456.19 820.91,457.17 821.43,458.11 822.47,459.02"/>
    </edge>
    <edge id=":1473258678_1" function="internal">
        <lane id=":1473258678_1_0" index="0" allow="delivery bicycle pedestrian" speed="5.56" length="5.38" shape="821.43,455.18 818.18,459.47"/>
    </edge>
    <edge id=":1473258678_2" function="internal">
        <lane id=":1473258678_2_0" index="0" allow="delivery bicycle pedestrian" speed="5.56" length="2.41" shape="821.43,455.18 820.02,455.67 819.12,455.50"/>
    </edge>
    <edge id=":1473258678_9" function="internal">
        <lane id=":1473258678_9_0" index="0" speed="5.56" length="2.41" shape="819.12,455.50 818.71,454.67 818.80,453.19"/>
    </edge>
    <edge id=":1473258678_3" function="internal">
        <lane id=":1473258678_3_0" index="0" allow="delivery bicycle pedestrian" speed="4.17" length="4.89" shape="814.47,453.66 815.74,454.28 816.88,454.41 817.90,454.05 818.80,453.19"/>
    </edge>
    <edge id=":1473258678_4" function="internal">
        <lane id=":1473258678_4_0" index="0" allow="bicycle pedestrian" speed="2.78" length="9.63" width="2.00" shape="814.47,453.66 822.47,459.02"/>
    </edge>
    <edge id=":1473258678_5" function="internal">
        <lane id=":1473258678_5_0" index="0" allow="delivery bicycle pedestrian" speed="4.17" length="7.61" shape="814.47,453.66 816.73,455.36 818.11,456.89 818.59,458.26 818.18,459.47"/>
    </edge>
    <edge id=":1473258678_6" function="internal">
        <lane id=":1473258678_6_0" index="0" allow="delivery bicycle pedestrian" speed="5.56" length="5.38" shape="815.55,457.48 818.80,453.19"/>
    </edge>
    <edge id=":1473258678_7" function="internal">
        <lane id=":1473258678_7_0" index="0" allow="bicycle pedestrian" speed="4.17" length="2.74" width="2.00" shape="815.55,457.48 816.58,456.79 818.08,456.81"/>
    </edge>
    <edge id=":1473258678_8" function="internal">
        <lane id=":1473258678_8_0" index="0" allow="delivery bicycle pedestrian" speed="5.56" length="2.41" shape="815.55,457.48 816.95,456.99 817.86,457.16"/>
    </edge>
    <edge id=":1473258678_10" function="internal">
        <lane id=":1473258678_10_0" index="0" speed="4.17" length="4.94" width="2.00" shape="818.08,456.81 820.04,457.56 822.47,459.02"/>
    </edge>
    <edge id=":1473258678_11" function="internal">
        <lane id=":1473258678_11_0" index="0" speed="5.56" length="2.41" shape="817.86,457.16 818.27,457.98 818.18,459.47"/>
    </edge>
    <edge id=":1473258716_0" function="internal">
        <lane id=":1473258716_0_0" index="0" allow="bicycle pedestrian" speed="2.78" length="4.06" width="2.00" shape="835.38,467.84 836.20,468.60 836.57,469.43 836.48,470.33 835.93,471.31"/>
    </edge>
    <edge id=":1473296997_0" function="internal">
        <lane id=":1473296997_0_0" index="0" allow="delivery bicycle pedestrian" speed="5.56" length="5.16" shape="699.52,568.93 698.42,568.01 697.32,567.70 696.23,568.02 695.14,568.96"/>
    </edge>
    <edge id=":1473296997_1" function="internal">
        <lane id=":1473296997_1_0" index="0" allow="delivery bicycle pedestrian" speed="5.56" length="9.31" shape="699.52,568.93 697.67,566.88 696.46,565.42 695.40,563.85 694.03,561.46"/>
    </edge>
    <edge id=":1473296997_2" function="internal">
        <lane id=":1473296997_2_0" index="0" allow="delivery bicycle pedestrian" speed="5.56" length="4.82" shape="699.52,568.93 699.31,567.46 699.65,566.60 700.54,566.36 701.98,566.74"/>
    </edge>
    <edge id=":1473296997_3" function="internal">
        <lane id=":1473296997_3_0" index="0" allow="delivery bicycle pedestrian" speed="5.56" length="8.56" shape="696.93,559.87 698.18,562.07 699.16,563.51 700.28,564.85 701.98,566.74"/>
    </edge>
    <edge id=":1473296997_4" function="internal">