<?xml version="1.0" encoding="UTF-8"?>

<!-- generated on Fri Jan 11 13:27:14 2019 by Eclipse SUMO polyconvert Version 1.0.1
<configuration xmlns:xsi="http://www.w3.org/2001/XMLSchema-instance" xsi:noNamespaceSchemaLocation="http://sumo.dlr.de/xsd/polyconvertConfiguration.xsd">

    <input>
        <net-file value="../maps/LA/LA.net.xml"/>
        <osm-files value="../maps/LA/LA.osm.xml"/>
        <shapefile.add-param value="true"/>
    </input>

    <output>
        <output-file value="../maps/LA/LA-25.poly.xml"/>
    </output>

    <pruning>
        <prune.in-net value="true"/>
        <prune.explicit value="fountain"/>
    </pruning>

    <processing>
        <poi-layer-offset value="5"/>
    </processing>

</configuration>
-->

<additional xmlns:xsi="http://www.w3.org/2001/XMLSchema-instance" xsi:noNamespaceSchemaLocation="http://sumo.dlr.de/xsd/additional_file.xsd">
    <location netOffset="-376954.68,-3756478.43" convBoundary="-4363.12,-0.00,4131.82,5108.98" origBoundary="-118.378850,33.941846,-118.287080,33.987932" projParameter="+proj=utm +zone=11 +ellps=WGS84 +datum=WGS84 +units=m +no_defs"/>

    <poly id="127846746" type="residential" color="235,235,227" fill="1" layer="-3.00" shape="1987.101225,882.967867 1682.242793,888.097390 1681.004542,810.878073 1985.915629,808.953129 1987.101225,882.967867"/>
    <poly id="127846747" type="residential" color="235,235,227" fill="1" layer="-3.00" shape="2033.919907,1035.365110 2000.271830,1040.730095 1991.622631,1042.315611 1990.115251,963.369640 1989.353298,884.170163 1988.597740,805.469692 2028.745538,804.546689 2033.919907,1035.365110"/>
    <poly id="127846753" type="amenity" color="237,199,199" fill="1" layer="-1.00" shape="2028.633414,795.764352 1826.002138,798.420043 1827.066382,689.385593 2026.966399,686.909067 2028.633414,795.764352"/>
    <poly id="127846761" type="tourism" color="207,245,201" fill="1" layer="-2.00" shape="2028.762322,804.413387 2028.633414,795.764352 2026.966399,686.909067 1827.066382,689.385593 1826.002138,798.420043 1631.287833,800.047043 1625.228575,423.675330 2061.901349,416.539858 2069.573747,804.069887 2028.762322,804.413387"/>
    <poly id="127850503" type="residential" color="235,235,227" fill="1" layer="-3.00" shape="1680.789732,968.068382 1376.913198,972.463282 1376.171312,895.226431 1680.053589,891.086620 1680.789732,968.068382"/>
    <poly id="127850506" type="residential" color="235,235,227" fill="1" layer="-3.00" shape="1679.763046,887.885147 1376.386093,892.517556 1374.662122,816.535472 1588.062853,812.567602 1678.543658,812.140642 1679.763046,887.885147"/>
    <poly id="127850509" type="amenity" color="237,199,199" fill="1" layer="-1.00" shape="1365.131883,888.458667 1291.038416,890.286280 1289.416954,825.216069 1363.510930,823.388458 1365.131883,888.458667"/>
    <poly id="127850513" type="landuse" color="194,194,130" fill="1" layer="-3.00" shape="1283.114634,1215.976455 1230.562062,1216.651764 1230.234489,1171.749888 1282.300982,1172.067901 1283.114634,1215.976455"/>
    <poly id="127850521" type="residential" color="235,235,227" fill="1" layer="-3.00" shape="2088.905007,1206.401480 2039.586793,1207.031025 2037.429059,1038.026419 2063.900275,1033.740236 2087.907763,1031.215706 2088.905007,1206.401480"/>
    <poly id="127850522" type="residential" color="235,235,227" fill="1" layer="-3.00" shape="1985.056757,1207.727397 1686.633861,1211.543948 1686.298987,1127.647554 1990.410436,1122.527385 1985.056757,1207.727397"/>
    <poly id="127850525" type="residential" color="235,235,227" fill="1" layer="-3.00" shape="1990.369505,1119.322718 1686.024079,1124.944959 1685.060565,1049.696231 1979.015680,1045.193837 1989.168392,1044.820165 1990.369505,1119.322718"/>
    <poly id="127850529" type="residential" color="235,235,227" fill="1" layer="-3.00" shape="1988.896543,1042.350429 1977.745803,1042.736848 1684.779396,1047.226620 1684.043257,970.244850 1987.408119,964.890358 1988.896543,1042.350429"/>
    <poly id="127850531" type="residential" color="235,235,227" fill="1" layer="-3.00" shape="1987.114423,961.433835 1683.759105,967.542373 1682.779723,891.051715 1986.642885,885.435838 1987.114423,961.433835"/>
    <poly id="127850582" type="landuse" color="194,194,130" fill="1" layer="-3.00" shape="2092.210247,1406.722466 2042.394083,1407.358395 2039.621480,1209.747785 2089.678703,1208.365736 2092.210247,1406.722466"/>
    <poly id="127850584" type="landuse" color="194,194,130" fill="1" layer="-3.00" shape="2148.710247,1405.502454 2094.434122,1406.450090 2092.894505,1208.324696 2146.189364,1207.888693 2148.710247,1405.502454"/>
    <poly id="127850586" type="residential" color="235,235,227" fill="1" layer="-3.00" shape="2040.151482,1406.887950 1987.615703,1408.057971 1987.110175,1310.599994 1988.063742,1210.151107 2037.132445,1209.524479 2040.151482,1406.887950"/>
    <poly id="127850587" type="residential" color="235,235,227" fill="1" layer="-3.00" shape="2037.101015,1207.062763 1988.281801,1207.686204 1989.100463,1194.355907 1992.874391,1121.508849 1991.647840,1044.289420 2034.207214,1038.322637 2037.101015,1207.062763"/>
    <poly id="407350709" type="building" color="255,230,230" fill="1" layer="-1.00" shape="1318.800561,2388.722075 1318.070769,2388.742543 1318.097818,2390.128530 1318.809273,2390.119388 1318.842471,2392.703089 1316.162965,2392.737518 1316.154416,2392.072187 1315.932664,2392.075037 1315.886500,2388.482250 1318.796857,2388.433765 1318.800561,2388.722075"/>
    <poly id="407350710" type="building" color="255,230,230" fill="1" layer="-1.00" shape="1785.981091,2239.362040 1783.209573,2239.430785 1783.153894,2237.246639 1785.934794,2237.188865 1785.981091,2239.362040"/>
    <poly id="407350711" type="building" color="255,230,230" fill="1" layer="-1.00" shape="1776.971223,2235.063281 1777.413868,2235.711963 1776.471123,2235.701849 1776.463886,2242.356333 1775.752279,2242.354351 1775.806498,2246.590286 1776.370268,2246.594160 1776.359099,2250.775479 1775.924829,2250.781038 1775.909741,2251.768299 1776.353110,2251.751534 1776.347391,2253.470658 1777.058997,2253.472640 1777.045557,2257.476538 1781.333532,2257.477107 1781.337592,2253.462239 1781.975280,2253.465167 1781.984265,2252.001086 1782.529555,2252.005197 1782.527695,2252.581935 1784.144944,2252.583417 1784.137564,2252.006798 1785.320542,2252.013838 1785.327257,2250.372336 1786.149741,2250.372899 1786.153319,2249.208335 1785.330834,2249.207771 1785.328593,2247.588565 1785.966281,2247.591494 1785.968895,2244.907523 1786.883778,2244.906904 1786.887654,2243.043625 1785.972771,2243.044243 1785.974504,2241.735524 1786.556612,2241.728074 1786.558912,2240.463710 1785.976662,2240.460072 1785.981360,2240.105111 1788.476535,2240.106448 1788.485155,2235.725530 1780.445096,2235.717528 1780.935388,2235.034722 1779.985546,2234.470166 1777.925067,2234.496539 1776.971223,2235.063281"/>
    <poly id="407350712" type="building" color="255,230,230" fill="1" layer="-1.00" shape="1310.454049,2376.363400 1310.458894,2376.740420 1309.812115,2376.748731 1309.836886,2377.957297 1310.372788,2377.950411 1310.394852,2378.948288 1309.831373,2378.966619 1309.855168,2380.818457 1310.372591,2380.811808 1310.384987,2381.776537 1309.895284,2381.782830 1309.910388,2382.958248 1310.529447,2382.950293 1310.620879,2388.627545 1314.695436,2388.564099 1314.741600,2392.156885 1314.177980,2392.164127 1314.183679,2392.607681 1312.816207,2392.625252 1312.818345,2392.791585 1311.404674,2392.809749 1311.433007,2394.295536 1310.878627,2394.302660 1310.889313,2395.134323 1311.443693,2395.127200 1311.475895,2397.633279 1310.773680,2397.642302 1310.805861,2399.427488 1311.406439,2399.419770 1311.411711,2399.830058 1310.293711,2399.844424 1310.316082,2401.585373 1311.581916,2401.569107 1311.593030,2402.434037 1315.455068,2402.373322 1315.484398,2403.936730 1316.740993,2403.920584 1316.801240,2407.890273 1316.228381,2407.897633 1316.250872,2408.928777 1316.823588,2408.910328 1316.834844,2409.786347 1317.620073,2409.765167 1317.636437,2410.319490 1320.860935,2410.266969 1320.853954,2409.723615 1321.750201,2409.712100 1321.488010,2392.902002 1321.737624,2392.909886 1321.659427,2387.543003 1319.174095,2387.586026 1319.046193,2379.070030 1317.272173,2379.092824 1317.226458,2376.254198 1310.454049,2376.363400"/>
    <poly id="407350713" type="building" color="255,230,230" fill="1" layer="-1.00" shape="1753.071885,2044.388191 1753.228965,2044.386181 1753.528680,2064.911138 1753.325400,2064.913740 1753.353933,2067.142595 1768.553418,2066.925850 1768.037540,2030.954386 1760.627189,2031.060331 1760.614542,2030.794317 1752.880790,2030.904407 1753.071885,2044.388191"/>
    <poly id="407350714" type="building" color="255,230,230" fill="1" layer="-1.00" shape="1799.364211,2336.256149 1795.428375,2336.328701 1795.410620,2335.663489 1791.327091,2335.749024 1791.508145,2344.841043 1790.565836,2344.864194 1790.645216,2348.900176 1796.327067,2348.783094 1796.358446,2350.512834 1799.647496,2350.448560 1799.364211,2336.256149"/>
    <poly id="407350715" type="building" color="255,230,230" fill="1" layer="-1.00" shape="1371.276686,2107.720143 1376.829613,2107.626653 1376.808538,2105.985504 1381.418990,2105.904119 1381.226113,2093.762314 1377.493309,2093.821337 1377.523338,2095.440190 1376.839581,2095.448970 1376.736376,2088.851347 1370.970919,2088.947566 1371.276686,2107.720143"/>
    <poly id="407350716" type="building" color="255,230,230" fill="1" layer="-1.00" shape="1555.249889,2252.831881 1555.217168,2245.956089 1555.642199,2245.950639 1555.600949,2239.130410 1552.468366,2239.148399 1552.478323,2240.645511 1549.706093,2240.658880 1549.695848,2238.418697 1545.121711,2238.444083 1545.195985,2252.883175 1555.249889,2252.831881"/>
    <poly id="407350717" type="building" color="255,230,230" fill="1" layer="-1.00" shape="1787.817486,2396.559636 1788.334765,2396.541925 1788.292441,2394.679236 1787.728964,2394.697539 1787.595479,2387.878495 1778.005556,2388.067788 1778.283908,2401.872090 1782.533865,2401.795509 1782.557298,2402.904275 1787.943448,2402.790972 1787.817486,2396.559636"/>
    <poly id="407350718" type="building" color="255,230,230" fill="1" layer="-1.00" shape="1606.750129,2401.219030 1605.724527,2401.232176 1605.785649,2406.000378 1615.635263,2405.885216 1615.472524,2392.467600 1612.404954,2392.506919 1612.380649,2390.610727 1611.382765,2390.623518 1611.332733,2386.720246 1606.574301,2386.781240 1606.750129,2401.219030"/>
    <poly id="407350719" type="building" color="255,230,230" fill="1" layer="-1.00" shape="1577.827482,2189.480889 1577.812412,2188.305472 1576.398712,2188.323597 1576.413071,2189.443569 1571.210884,2189.499176 1571.298321,2197.039705 1571.011886,2197.043377 1571.075724,2203.464052 1581.055051,2203.358290 1580.904357,2189.441442 1577.827482,2189.480889"/>
    <poly id="407350720" type="building" color="255,230,230" fill="1" layer="-1.00" shape="1541.971684,2033.883950 1541.398803,2033.891297 1541.394531,2032.116846 1534.584919,2032.226354 1534.618335,2034.111338 1534.405530,2034.091886 1534.917321,2070.396146 1542.060825,2070.382171 1541.864742,2057.974236 1542.308262,2057.968548 1541.971684,2033.883950"/>
    <poly id="407350721" type="building" color="255,230,230" fill="1" layer="-1.00" shape="1384.916577,2286.160237 1384.836346,2283.510597 1384.411458,2283.527144 1384.245031,2278.483025 1381.178134,2278.577862 1381.146126,2277.524659 1377.524984,2277.637706 1377.724990,2283.857004 1377.336919,2283.861988 1377.425111,2286.411710 1384.916577,2286.160237"/>
    <poly id="407350722" type="building" color="255,230,230" fill="1" layer="-1.00" shape="1458.128859,2253.966875 1457.930777,2239.252101 1452.821155,2239.317676 1452.811051,2238.530368 1451.064724,2238.552781 1451.073833,2239.262467 1449.151950,2239.287133 1449.172586,2240.895015 1449.551418,2240.890152 1449.730016,2254.085755 1458.128859,2253.966875"/>
    <poly id="407350723" type="building" color="255,230,230" fill="1" layer="-1.00" shape="1796.975510,2146.714215 1799.433182,2146.671673 1799.216508,2135.517252 1796.869712,2135.558375 1796.830372,2133.928553 1787.332590,2134.116647 1787.356590,2135.269767 1786.700556,2135.278163 1786.892586,2149.560463 1797.028047,2149.375298 1796.975510,2146.714215"/>
    <poly id="407350724" type="building" color="255,230,230" fill="1" layer="-1.00" shape="1424.645318,2307.787129 1429.598255,2307.756820 1429.590840,2306.459307 1436.299331,2306.406467 1436.281515,2303.578574 1433.398567,2303.604490 1433.343445,2297.150427 1432.622743,2297.159678 1432.545261,2288.243775 1424.487608,2288.302846 1424.645318,2307.787129"/>
    <poly id="407350725" type="building" color="255,230,230" fill="1" layer="-1.00" shape="1427.826219,2143.072044 1427.798760,2141.652791 1422.190842,2141.780230 1422.542803,2157.679730 1428.335510,2157.549919 1428.253002,2154.001964 1431.357183,2153.928847 1431.275531,2150.447425 1431.035293,2150.450509 1430.865725,2142.999757 1427.826219,2143.072044"/>
    <poly id="407350726" type="building" color="255,230,230" fill="1" layer="-1.00" shape="1823.174985,2281.784713 1823.077850,2277.804412 1829.313704,2277.646991 1829.173690,2271.759647 1823.196404,2271.902669 1823.181631,2271.470322 1820.068393,2271.554519 1820.150897,2275.113563 1816.788186,2275.200953 1816.948373,2281.942019 1823.174985,2281.784713"/>
    <poly id="407350727" type="building" color="255,230,230" fill="1" layer="-1.00" shape="1363.743984,2396.185454 1363.799209,2399.046139 1362.616532,2399.061329 1362.736240,2405.503474 1362.320598,2405.519903 1362.369148,2408.580306 1373.917867,2408.365435 1373.867772,2405.903948 1370.809729,2405.965404 1370.626970,2396.052689 1363.743984,2396.185454"/>
    <poly id="407350728" type="building" color="255,230,230" fill="1" layer="-1.00" shape="1383.407996,2092.392326 1383.497583,2107.285944 1394.632723,2107.220602 1394.608490,2103.893713 1391.494340,2103.911516 1391.418620,2092.256196 1389.209983,2092.262373 1388.608516,2091.482658 1387.481667,2091.530399 1386.827068,2092.370605 1383.407996,2092.392326"/>
    <poly id="407350729" type="building" color="255,230,230" fill="1" layer="-1.00" shape="1308.577384,2287.129750 1308.715343,2294.270373 1309.593121,2294.259094 1309.730082,2301.322095 1311.633189,2301.275460 1311.811426,2310.112438 1319.535150,2309.957745 1319.254830,2295.332746 1318.497169,2295.342480 1318.333736,2286.937848 1308.577384,2287.129750"/>
    <poly id="407350730" type="building" color="255,230,230" fill="1" layer="-1.00" shape="1809.599282,2137.325254 1804.969944,2137.373401 1804.919129,2134.124491 1799.957153,2134.176896 1800.154178,2146.684628 1801.059263,2146.639774 1801.044849,2149.124264 1803.568052,2149.147428 1803.553103,2150.145778 1809.679156,2150.067388 1809.599282,2137.325254"/>
    <poly id="407350731" type="building" color="255,230,230" fill="1" layer="-1.00" shape="1876.425197,2348.412671 1881.377820,2348.360420 1881.353712,2346.475318 1889.835903,2346.377932 1889.703641,2334.590264 1884.889607,2334.640738 1884.906744,2336.703379 1881.118461,2336.751827 1881.101465,2334.700275 1876.278191,2334.750871 1876.425197,2348.412671"/>
    <poly id="407350732" type="building" color="255,230,230" fill="1" layer="-1.00" shape="1459.815137,2388.242145 1455.999008,2388.280030 1455.992177,2387.747766 1454.892513,2387.750789 1454.860623,2384.545994 1451.275485,2384.580917 1451.497457,2407.635573 1458.769352,2407.564423 1458.744589,2405.634964 1459.982846,2405.630163 1459.815137,2388.242145"/>
    <poly id="407350733" type="building" color="255,230,230" fill="1" layer="-1.00" shape="1481.905681,2368.394724 1481.893285,2365.988208 1476.884942,2366.019201 1476.906152,2368.392332 1476.009760,2368.392744 1476.096113,2373.681885 1482.314993,2373.646448 1482.308875,2373.169628 1487.529727,2373.135911 1487.505363,2368.356145 1481.905681,2368.394724"/>
    <poly id="407350734" type="building" color="255,230,230" fill="1" layer="-1.00" shape="1617.702523,2090.573433 1612.906698,2090.612715 1612.905990,2089.836379 1609.145040,2089.862400 1609.242092,2104.645003 1618.260992,2104.584867 1618.215811,2098.175046 1618.770779,2097.491403 1618.746759,2096.338283 1617.739323,2095.608120 1617.702523,2090.573433"/>
    <poly id="407350735" type="building" color="255,230,230" fill="1" layer="-1.00" shape="1556.414224,2166.343056 1556.390037,2160.132595 1550.947027,2160.146937 1550.947030,2160.867830 1550.632731,2160.860770 1550.649809,2165.795896 1551.037884,2165.790919 1551.036610,2167.132906 1553.004991,2167.129846 1553.004277,2166.353509 1556.414224,2166.343056"/>
    <poly id="407350736" type="building" color="255,230,230" fill="1" layer="-1.00" shape="1568.069160,2238.538002 1564.262497,2238.597901 1564.253966,2237.932571 1561.611377,2237.966455 1561.646637,2239.995594 1558.329542,2240.038128 1558.447845,2249.264043 1558.789717,2249.259659 1558.921241,2258.795943 1568.345695,2258.664008 1568.069160,2238.538002"/>
    <poly id="407350737" type="building" color="255,230,230" fill="1" layer="-1.00" shape="1859.181591,2396.855376 1867.450942,2396.738510 1867.395606,2393.134756 1867.876068,2393.128611 1867.682807,2380.909186 1871.609526,2380.847870 1871.522827,2375.514376 1866.108517,2375.594720 1866.049919,2371.735923 1858.796911,2371.839789 1859.181591,2396.855376"/>
    <poly id="407350738" type="building" color="255,230,230" fill="1" layer="-1.00" shape="1324.245553,2402.537642 1323.839008,2402.542866 1323.874325,2409.607173 1332.625137,2409.561288 1332.555371,2395.499207 1331.622022,2395.500107 1331.605882,2392.805280 1328.842934,2392.818596 1328.831496,2390.489701 1324.192750,2390.516027 1324.245553,2402.537642"/>
    <poly id="407350739" type="building" color="255,230,230" fill="1" layer="-1.00" shape="1852.764905,2258.614870 1849.485063,2258.679007 1849.477829,2258.113476 1849.034319,2258.119150 1848.979667,2255.291733 1843.500894,2255.395093 1843.556682,2258.311220 1843.020774,2258.318075 1843.124368,2264.971140 1852.871775,2264.802085 1852.764905,2258.614870"/>
    <poly id="407350740" type="building" color="255,230,230" fill="1" layer="-1.00" shape="1440.818217,2284.799293 1443.774519,2284.728076 1443.788455,2285.093889 1444.887846,2285.068687 1444.905483,2285.722811 1448.573106,2285.631375 1448.413937,2278.990107 1443.831716,2279.104372 1443.783918,2276.820308 1440.633720,2276.905104 1440.818217,2284.799293"/>
    <poly id="407350741" type="building" color="255,230,230" fill="1" layer="-1.00" shape="1734.045509,2337.569209 1733.361628,2337.566875 1733.347439,2335.737098 1729.004486,2335.770529 1729.006748,2336.668843 1724.321927,2336.706653 1724.481591,2355.669631 1730.820452,2355.621731 1730.799731,2353.281868 1734.172364,2353.249772 1734.045509,2337.569209"/>
    <poly id="407350742" type="building" color="255,230,230" fill="1" layer="-1.00" shape="1876.107632,2098.134094 1872.836974,2098.198103 1872.642272,2087.309580 1871.080861,2087.340639 1871.024658,2084.391246 1868.151171,2084.439087 1868.191754,2086.889601 1864.856412,2086.954440 1865.109314,2100.947600 1876.150198,2100.739851 1876.107632,2098.134094"/>
    <poly id="407350743" type="building" color="255,230,230" fill="1" layer="-1.00" shape="1619.350193,2137.654340 1616.522636,2137.679488 1616.532866,2139.198777 1614.120964,2139.207507 1614.102489,2137.765959 1609.473006,2137.803112 1609.564383,2149.258591 1613.713384,2149.227596 1613.713528,2148.517792 1619.433314,2148.466667 1619.350193,2137.654340"/>
    <poly id="407350744" type="building" color="255,230,230" fill="1" layer="-1.00" shape="1673.752165,2101.400643 1671.100157,2101.423525 1671.058847,2095.313104 1670.217727,2095.301697 1670.094264,2087.828178 1661.546587,2087.882227 1661.663220,2096.986161 1660.877966,2097.007312 1660.972728,2103.682672 1673.780149,2103.585144 1673.752165,2101.400643"/>
    <poly id="407350745" type="building" color="255,230,230" fill="1" layer="-1.00" shape="1594.793685,2079.099869 1594.377886,2079.105199 1594.362394,2076.454730 1589.455540,2076.484357 1589.479702,2082.694816 1589.137681,2082.688110 1589.149479,2084.329376 1589.491357,2084.324994 1589.502018,2085.877549 1594.824808,2085.853681 1594.793685,2079.099869"/>
    <poly id="407350746" type="building" color="255,230,230" fill="1" layer="-1.00" shape="1330.289168,2142.128595 1326.010372,2142.128110 1326.017293,2140.508783 1319.224954,2140.518411 1319.302292,2145.818759 1321.963815,2145.817838 1321.955488,2158.117501 1325.698219,2158.113780 1325.687959,2162.350548 1330.381971,2162.301336 1330.289168,2142.128595"/>
    <poly id="407350747" type="building" color="255,230,230" fill="1" layer="-1.00" shape="1537.147159,2352.347666 1545.813721,2352.214335 1545.755846,2348.422070 1545.062867,2348.430957 1545.011249,2345.126601 1545.685748,2345.117950 1545.625455,2341.137175 1542.576347,2341.176279 1542.543074,2339.302383 1536.934705,2339.385402 1537.147159,2352.347666"/>
    <poly id="407350748" type="building" color="255,230,230" fill="1" layer="-1.00" shape="1889.718737,2134.869702 1883.684933,2134.935770 1883.669760,2133.749265 1878.245789,2133.807538 1878.289751,2137.245076 1878.668729,2137.251320 1878.780595,2146.721301 1881.968361,2146.680534 1881.976444,2147.312597 1889.867460,2147.222779 1889.718737,2134.869702"/>
    <poly id="407350749" type="building" color="255,230,230" fill="1" layer="-1.00" shape="1393.036765,2141.988159 1390.217877,2141.968900 1390.236087,2142.667378 1386.697911,2142.768263 1386.675999,2141.781475 1383.220838,2141.870204 1383.317206,2147.935563 1383.585306,2147.943211 1383.738741,2157.013409 1393.245605,2156.813702 1393.036765,2141.988159"/>
    <poly id="407350750" type="building" color="255,230,230" fill="1" layer="-1.00" shape="1848.267484,2089.806197 1845.578657,2089.840592 1845.439485,2079.683340 1838.149293,2079.787688 1838.269425,2089.900822 1838.426363,2089.887723 1838.555470,2099.257668 1844.468895,2099.170931 1844.499251,2101.543941 1848.426086,2101.482619 1848.267484,2089.806197"/>
    <poly id="407350751" type="building" color="255,230,230" fill="1" layer="-1.00" shape="1591.668680,2141.713425 1592.204595,2141.706556 1592.146599,2137.903203 1583.239745,2138.050654 1583.614752,2161.535865 1589.371064,2161.450981 1589.314204,2157.736339 1590.616887,2157.708549 1590.553062,2153.450554 1591.855746,2153.422764 1591.668680,2141.713425"/>
    <poly id="407350752" type="building" color="255,230,230" fill="1" layer="-1.00" shape="1317.096289,2092.800415 1309.391010,2092.965957 1309.373507,2092.322923 1307.858294,2092.353482 1307.875798,2092.996516 1306.480705,2093.025532 1306.771798,2106.330599 1308.582687,2106.296241 1308.653435,2109.644715 1317.457970,2109.442867 1317.096289,2092.800415"/>
    <poly id="407350753" type="building" color="255,230,230" fill="1" layer="-1.00" shape="1382.660822,2344.381963 1379.962966,2344.427700 1379.924374,2341.422623 1373.475189,2341.516537 1373.567882,2348.014481 1374.547292,2348.001903 1374.691947,2357.826382 1379.903143,2357.759457 1379.884630,2356.317908 1382.831955,2356.268967 1382.660822,2344.381963"/>
    <poly id="407350754" type="building" color="255,230,230" fill="1" layer="-1.00" shape="1434.422091,2106.876169 1436.067087,2106.877237 1436.072496,2107.298613 1438.872485,2107.284856 1438.877598,2106.963161 1446.140769,2106.914305 1446.114683,2102.001475 1443.250012,2102.016059 1443.199557,2093.044358 1434.346816,2093.091437 1434.422091,2106.876169"/>
    <poly id="407350755" type="building" color="255,230,230" fill="1" layer="-1.00" shape="1469.593885,2252.976855 1469.589400,2246.865955 1472.010658,2246.868157 1472.005169,2239.958742 1466.340162,2239.953802 1466.339584,2239.188554 1462.005396,2239.188720 1462.001308,2241.750716 1462.352422,2241.746211 1462.367359,2252.991956 1469.593885,2252.976855"/>
    <poly id="407350756" type="building" color="255,230,230" fill="1" layer="-1.00" shape="1384.216450,2392.118426 1375.079124,2392.291224 1375.252052,2401.438809 1374.392905,2401.460934 1374.515597,2408.135944 1378.682398,2408.060250 1378.658348,2406.907129 1381.633234,2406.846743 1382.297510,2407.481471 1383.822765,2407.517337 1384.490852,2407.009677 1384.216450,2392.118426"/>
    <poly id="407350757" type="building" color="255,230,230" fill="1" layer="-1.00" shape="1774.382643,2340.391076 1774.918547,2340.384217 1774.908624,2338.887105 1774.050906,2338.299189 1773.141865,2338.033559 1771.962588,2338.314830 1764.457809,2338.244540 1764.442840,2340.684675 1765.265316,2340.685237 1765.165179,2352.353888 1774.435156,2352.434855 1774.382643,2340.391076"/>
    <poly id="407350758" type="building" color="255,230,230" fill="1" layer="-1.00" shape="1610.763435,2048.850587 1618.016127,2048.702183 1617.690938,2033.423426 1617.275138,2033.428754 1616.953161,2032.822895 1615.382073,2032.820848 1614.928457,2033.481010 1613.052876,2033.516139 1612.610068,2032.856374 1611.020500,2032.854565 1610.595315,2033.569817 1610.763435,2048.850587"/>
    <poly id="407350759" type="building" color="255,230,230" fill="1" layer="-1.00" shape="1387.900886,2401.975083 1387.531299,2401.979829 1387.693487,2408.133071 1392.534214,2408.004365 1392.443162,2404.511972 1396.424745,2404.405392 1396.166671,2394.382737 1395.578306,2393.902303 1393.831581,2393.891460 1393.846897,2392.205481 1387.654606,2392.151909 1387.900886,2401.975083"/>
    <poly id="407350760" type="building" color="255,230,230" fill="1" layer="-1.00" shape="1387.615644,2366.089327 1390.701703,2366.049698 1390.673668,2364.586089 1392.688873,2362.475166 1393.788682,2362.483225 1393.833902,2356.648950 1395.922646,2356.666492 1396.021713,2342.790789 1393.036570,2342.773666 1393.045922,2341.342849 1387.214232,2341.306827 1387.615644,2366.089327"/>
    <poly id="407350761" type="building" color="255,230,230" fill="1" layer="-1.00" shape="1349.411888,2409.212549 1355.666425,2409.076755 1356.630589,2407.877668 1356.617342,2406.846405 1359.167346,2406.802560 1359.073930,2400.249171 1359.766905,2400.240270 1359.746110,2398.621299 1359.053135,2398.630200 1358.994311,2394.050507 1349.089523,2394.188825 1349.411888,2409.212549"/>
    <poly id="407350762" type="building" color="255,230,230" fill="1" layer="-1.00" shape="1544.952240,2203.610484 1548.777824,2203.583606 1548.767159,2202.751943 1551.465481,2202.739523 1551.459509,2202.273791 1554.425787,2202.257936 1554.358643,2189.094180 1552.281789,2184.961814 1549.214578,2185.034418 1549.324482,2190.001625 1544.880532,2190.091885 1544.952240,2203.610484"/>
    <poly id="407350763" type="building" color="255,230,230" fill="1" layer="-1.00" shape="1556.848736,2105.094853 1563.160048,2105.047201 1563.149527,2104.226627 1565.875454,2104.202767 1565.772652,2091.139288 1561.873246,2091.178193 1561.836560,2086.875488 1560.487383,2086.881696 1560.475866,2085.983500 1559.893748,2085.990964 1559.882370,2083.662071 1556.685056,2083.680886 1556.848736,2105.094853"/>
    <poly id="407350764" type="building" color="255,230,230" fill="1" layer="-1.00" shape="1686.519609,2158.065616 1684.357758,2158.115488 1684.334456,2157.017812 1682.283625,2157.077354 1682.305223,2158.041964 1681.002539,2158.069741 1681.234304,2166.784028 1675.719086,2166.932311 1675.791700,2169.715136 1678.895732,2169.631011 1678.882799,2169.342819 1686.818439,2169.130262 1686.519609,2158.065616"/>
    <poly id="407350765" type="building" color="255,230,230" fill="1" layer="-1.00" shape="1518.797371,2189.062261 1519.047387,2204.231082 1522.650788,2204.173772 1522.664157,2205.216123 1525.454593,2205.180332 1525.425015,2203.594747 1525.865830,2204.099263 1527.371500,2204.046679 1528.158021,2203.404424 1528.151047,2202.140178 1527.790693,2202.144799 1527.685699,2188.914984 1518.797371,2189.062261"/>
    <poly id="407350766" type="building" color="255,230,230" fill="1" layer="-1.00" shape="1347.187889,2309.458315 1353.221308,2309.369725 1353.197948,2307.551154 1357.411136,2307.485947 1357.351458,2302.839721 1356.094850,2302.855862 1355.998728,2296.091785 1351.332645,2296.151720 1351.320396,2295.198079 1349.795834,2295.217662 1349.808226,2296.182391 1346.999336,2296.218472 1347.187889,2309.458315"/>
    <poly id="407350767" type="building" color="255,230,230" fill="1" layer="-1.00" shape="1601.320622,2392.904087 1592.911813,2392.956430 1592.929726,2395.074517 1591.737809,2395.089797 1591.773208,2400.013598 1593.131581,2400.007275 1593.143807,2401.681808 1591.776195,2401.688250 1591.813726,2406.057491 1597.579698,2406.016844 1597.575575,2404.253482 1601.401077,2404.226623 1601.320622,2392.904087"/>
    <poly id="407350768" type="building" color="255,230,230" fill="1" layer="-1.00" shape="1869.832720,2246.263388 1869.837901,2234.385237 1866.409362,2234.384726 1866.408695,2232.887497 1863.137233,2232.884978 1863.138063,2233.672404 1858.489726,2233.676407 1858.495258,2239.166207 1857.589614,2239.166700 1857.586109,2242.505030 1858.491894,2242.515626 1858.493637,2246.264243 1869.832720,2246.263388"/>
    <poly id="407350769" type="building" color="255,230,230" fill="1" layer="-1.00" shape="1786.325083,2295.842330 1784.810047,2295.883903 1784.735335,2292.934745 1786.268852,2292.892936 1786.164732,2289.090175 1776.594040,2289.345763 1776.949728,2302.694357 1780.524943,2302.604232 1780.460591,2300.464560 1783.546101,2300.380704 1783.582038,2301.744394 1786.482894,2301.673994 1786.325083,2295.842330"/>
    <poly id="407350770" type="building" color="255,230,230" fill="1" layer="-1.00" shape="1368.315698,2196.660983 1367.613468,2196.670002 1367.527058,2191.380861 1360.070767,2191.498805 1360.076606,2191.953447 1359.032785,2191.989035 1359.066912,2198.243736 1359.676458,2198.213725 1359.830505,2208.049173 1364.588888,2207.976968 1364.599426,2208.797543 1368.507742,2208.736258 1368.315698,2196.660983"/>
    <poly id="407350771" type="building" color="255,230,230" fill="1" layer="-1.00" shape="1439.191118,2401.383122 1438.553724,2401.402395 1438.680913,2407.711354 1444.935592,2407.586707 1444.824206,2402.508609 1445.895864,2402.483764 1445.905543,2403.237805 1448.621719,2403.180761 1448.378171,2391.405594 1445.634273,2391.462994 1445.666143,2393.226002 1438.995527,2393.344896 1439.191118,2401.383122"/>