<?xml version="1.0" encoding="UTF-8"?>

<!-- generated on Sat Dec  8 18:09:03 2018 by SUMO polyconvert Version 0.30.0
<?xml version="1.0" encoding="UTF-8"?>

<configuration xmlns:xsi="http://www.w3.org/2001/XMLSchema-instance" xsi:noNamespaceSchemaLocation="http://sumo.dlr.de/xsd/polyconvertConfiguration.xsd">

    <input>
        <net-file value="/home/jordan/Downloads/sumo-0.30.0/tools/2018-12-08-18-08-54/osm.net.xml"/>
        <osm-files value="osm_bbox.osm.xml"/>
        <osm.keep-full-type value="true"/>
        <type-file value="/home/jordan/Downloads/sumo-0.30.0/data/typemap/osmPolyconvert.typ.xml"/>
    </input>

    <output>
        <output-file value="/home/jordan/Downloads/sumo-0.30.0/tools/2018-12-08-18-08-54/osm.poly.xml"/>
    </output>

    <processing>
        <poi-layer-offset value="5"/>
    </processing>

    <report>
        <verbose value="true"/>
    </report>

</configuration>
-->

<additional xmlns:xsi="http://www.w3.org/2001/XMLSchema-instance" xsi:noNamespaceSchemaLocation="http://sumo.dlr.de/xsd/additional_file.xsd">
    <location netOffset="-387549.92,-5820742.45" convBoundary="-18426.66,-10823.37,19355.51,15190.04" origBoundary="13.075182,52.423877,13.628703,52.660895" projParameter="+proj=utm +zone=33 +ellps=WGS84 +datum=WGS84 +units=m +no_defs"/>

    <poly id="100406200" type="landuse.residential" color="235,235,227" fill="1" layer="-3.00" shape="2579.63,2242.80 2585.01,2249.34 2600.94,2268.70 2621.76,2293.77 2623.15,2295.48 2624.61,2297.27 2631.19,2305.32 2642.28,2318.91 2642.74,2319.46 2730.32,2426.29 2785.48,2494.16 2770.22,2494.07 2731.65,2488.38 2672.29,2477.98 2610.84,2461.55 2601.24,2458.85 2595.68,2456.90 2571.10,2444.43 2543.92,2432.74 2539.05,2421.30 2500.45,2404.95 2493.44,2403.06 2486.81,2400.11 2480.69,2396.18 2479.10,2397.89 2473.08,2392.27 2455.72,2383.53 2452.20,2387.29 2444.99,2379.91 2437.46,2386.26 2427.48,2380.71 2397.66,2348.11 2386.98,2358.92 2371.60,2348.81 2345.36,2331.40 2345.02,2329.80 2343.47,2328.78 2341.87,2329.08 2327.78,2319.75 2334.86,2312.46 2340.45,2306.69 2343.35,2303.69 2349.75,2297.08 2357.92,2305.82 2359.56,2307.58 2361.44,2309.59 2368.42,2317.06 2384.57,2334.37 2389.63,2330.08 2399.51,2320.70 2404.03,2316.40 2387.19,2298.73 2376.64,2287.67 2367.80,2278.40 2373.59,2272.39 2376.91,2268.94 2380.67,2265.03 2395.11,2250.04 2400.63,2244.31 2406.59,2238.13 2413.93,2230.54 2416.61,2227.78 2425.42,2218.68 2426.78,2217.27 2430.51,2213.41 2436.51,2207.21 2443.64,2199.85 2447.67,2195.69 2452.81,2190.37 2459.76,2183.20 2465.51,2177.25 2475.17,2167.27 2482.68,2159.49 2491.34,2150.52 2498.15,2143.47 2504.40,2151.10 2512.31,2160.74 2524.71,2175.86 2529.80,2182.07 2532.17,2184.95 2537.25,2191.15 2556.27,2214.27 2566.23,2226.44 2567.92,2228.50 2576.02,2238.39 2579.38,2242.49 2579.63,2242.80"/>
    <poly id="100407647" type="landuse.residential" color="235,235,227" fill="1" layer="-3.00" shape="2026.31,1630.01 2018.74,1629.49 2011.16,1628.98 2001.73,1628.35 1992.30,1627.73 1983.28,1627.15 1965.44,1647.24 1947.52,1667.43 1946.27,1668.85 1954.49,1676.16 1956.28,1676.43 1961.20,1677.21 1988.94,1681.60 2000.23,1668.30 2008.49,1668.84 2008.15,1676.33 2013.34,1679.44 2015.98,1681.85 2016.79,1682.57 2023.84,1688.99 2019.16,1696.22 2018.35,1697.47 2014.40,1703.57 2016.85,1705.67 2034.00,1719.44 2032.77,1727.47 2049.49,1729.24 2049.33,1732.00 2066.76,1745.95 2068.51,1747.36 2069.69,1757.55 2070.85,1767.32 2073.82,1791.76 2070.65,1791.26 2060.02,1789.55 2056.71,1789.01 2044.12,1786.99 2042.91,1786.80 2039.89,1805.92 2037.90,1818.41 2046.40,1819.75 2054.89,1821.07 2063.42,1822.40 2071.97,1823.73 2080.56,1825.08 2089.15,1826.43 2100.18,1828.15 2111.22,1829.87 2113.43,1830.19 2113.17,1828.38 2111.03,1811.68 2108.89,1794.98 2105.79,1769.13 2110.62,1768.53 2109.35,1758.33 2108.91,1754.72 2104.07,1719.64 2102.11,1707.38 2097.31,1681.45 2094.56,1662.98 2093.68,1651.58 2093.18,1634.46 2056.22,1632.05 2048.77,1631.55 2041.33,1631.04 2033.82,1630.53 2026.31,1630.01"/>
    <poly id="100408623" type="amenity.school" color="237,199,199" fill="1" layer="-1.00" shape="2095.94,2333.41 2122.79,2359.78 2134.45,2370.80 2161.96,2396.68 2185.78,2370.69 2198.72,2356.58 2190.62,2348.77 2229.19,2311.97 2224.07,2306.73 2237.62,2292.96 2176.20,2253.56 2095.94,2333.41"/>
    <poly id="100409404" type="landuse.residential" color="235,235,227" fill="1" layer="-3.00" shape="1952.01,2130.60 1955.76,2128.96 1968.63,2123.34 1991.81,2140.60 2024.29,2164.75 2027.15,2173.02 2027.28,2173.35 2031.48,2185.05 2031.74,2185.77 2033.13,2189.77 2036.98,2200.87 2040.83,2211.79 2046.03,2226.54 2048.90,2234.58 2050.76,2239.78 2051.33,2241.38 2052.50,2240.94 2054.28,2245.81 2054.45,2246.28 2062.12,2259.84 2069.74,2257.09 2077.61,2277.31 2073.55,2281.45 2071.72,2283.33 2058.44,2296.89 2052.90,2291.51 2047.37,2286.11 2036.18,2275.23 2029.34,2268.26 2022.19,2261.44 2015.04,2254.63 2010.34,2250.00 2005.64,2245.38 1999.67,2239.52 1993.71,2233.65 1988.06,2227.92 1984.26,2224.08 1982.75,2219.75 1977.54,2204.82 1971.57,2187.72 1966.47,2172.81 1961.12,2157.19 1960.95,2156.70 1960.42,2155.15 1959.22,2151.65 1957.63,2147.00 1953.33,2134.44 1952.01,2130.60"/>
    <poly id="100410151" type="landuse.residential" color="235,235,227" fill="1" layer="-3.00" shape="2195.85,2062.70 2197.81,2065.63 2214.91,2102.57 2205.56,2105.89 2193.90,2110.04 2183.02,2113.91 2179.52,2115.16 2177.44,2115.90 2159.28,2122.36 2112.01,2139.18 2098.13,2103.52 2090.41,2083.90 2085.82,2072.20 2093.59,2068.81 2096.74,2067.43 2108.18,2062.44 2116.12,2058.97 2118.96,2057.72 2128.74,2053.45 2134.29,2051.02 2143.14,2047.16 2149.27,2044.49 2156.29,2041.43 2164.27,2037.93 2176.95,2032.39 2180.95,2030.64 2185.88,2042.28 2186.85,2041.78 2195.85,2062.70"/>
    <poly id="101690150" type="landuse.village_green" color="242,242,204" fill="1" layer="-3.00" shape="3526.99,1265.81 3522.02,1278.85 3514.63,1275.11 3520.72,1261.50 3510.00,1256.08 3514.45,1247.64 3521.37,1234.54 3523.91,1236.83 3525.66,1241.07 3528.63,1249.44 3526.99,1265.81"/>
    <poly id="101690151" type="leisure.park" color="207,245,201" fill="1" layer="-2.00" shape="3311.42,1045.19 3341.73,1080.45 3362.77,1062.86 3382.54,1085.47 3406.23,1111.90 3412.46,1119.68 3432.26,1129.08 3405.29,1156.14 3419.62,1170.00 3490.01,1236.41 3473.27,1267.44 3382.18,1176.83 3278.94,1073.61 3311.42,1045.19"/>
    <poly id="102788245" type="building.apartments" color="255,230,230" fill="1" layer="-1.00" shape="1210.18,1777.96 1210.85,1776.29 1211.76,1776.41 1216.11,1767.45 1217.43,1763.59 1222.73,1765.60 1227.86,1767.60 1237.97,1771.37 1250.40,1776.17 1246.71,1783.24 1243.02,1790.32 1222.30,1782.51 1210.18,1777.96"/>
    <poly id="102788248" type="building.apartments" color="255,230,230" fill="1" layer="-1.00" shape="1219.33,1742.03 1217.01,1740.83 1215.73,1744.20 1218.04,1745.28 1219.33,1742.03"/>
    <poly id="102788250" type="building.yes" color="255,230,230" fill="1" layer="-1.00" shape="1322.67,1584.92 1322.70,1584.67 1322.81,1584.45 1328.69,1576.53 1328.92,1576.39 1329.17,1576.34 1329.43,1576.37 1329.67,1576.49 1334.66,1580.18 1334.95,1579.79 1335.12,1579.90 1334.82,1580.30 1338.67,1583.15 1338.96,1582.75 1339.13,1582.87 1338.83,1583.27 1347.11,1589.40 1347.26,1589.55 1347.35,1589.75 1347.38,1589.96 1347.35,1590.19 1347.25,1590.38 1341.51,1598.23 1341.33,1598.40 1341.11,1598.52 1340.86,1598.56 1340.62,1598.52 1340.40,1598.40 1332.17,1592.31 1331.87,1592.72 1331.71,1592.59 1332.01,1592.19 1328.15,1589.33 1327.86,1589.74 1327.69,1589.62 1327.99,1589.21 1322.84,1585.38 1322.72,1585.16 1322.67,1584.92"/>
    <poly id="102788252" type="building.apartments" color="255,230,230" fill="1" layer="-1.00" shape="1222.30,1782.51 1210.18,1777.96 1205.60,1776.23 1204.17,1780.06 1208.74,1781.74 1203.98,1794.90 1212.05,1797.98 1214.05,1798.72 1219.05,1785.68 1220.92,1786.37 1222.30,1782.51"/>
    <poly id="102788256" type="building.yes" color="255,230,230" fill="1" layer="-1.00" shape="1217.40,1716.51 1207.16,1712.54 1204.00,1711.39 1202.34,1715.71 1200.35,1720.93 1198.35,1726.14 1195.92,1725.19 1194.61,1728.67 1210.41,1734.77 1217.40,1716.51"/>
    <poly id="103996317" type="building.detached" color="255,230,230" fill="1" layer="-1.00" shape="965.55,2053.98 964.37,2055.96 969.15,2059.29 977.85,2045.89 970.28,2041.05 965.99,2047.17 962.25,2044.97 959.06,2049.79 965.55,2053.98"/>
    <poly id="104391379" type="building.residential" color="255,230,230" fill="1" layer="-1.00" shape="764.75,1100.07 764.94,1081.42 772.52,1081.48 772.87,1081.12 773.25,1080.87 773.53,1080.74 773.78,1080.68 774.28,1080.62 774.77,1080.67 775.15,1080.81 775.41,1080.96 775.66,1081.14 775.86,1081.34 776.00,1081.53 783.54,1081.64 783.33,1100.25 778.19,1100.22 778.03,1111.45 811.45,1116.79 814.85,1117.34 813.27,1127.48 757.41,1118.52 760.10,1102.07 770.35,1103.71 770.41,1100.11 764.75,1100.07"/>
    <poly id="104393861" type="building.yes" color="255,230,230" fill="1" layer="-1.00" shape="1295.81,1967.08 1297.02,1966.91 1300.71,1963.22 1300.21,1962.75 1301.97,1960.97 1303.72,1959.21 1304.21,1959.70 1306.82,1957.08 1306.68,1955.89 1305.01,1954.25 1301.64,1950.94 1299.89,1949.23 1298.68,1949.17 1288.93,1958.88 1288.89,1960.09 1295.81,1967.08"/>
    <poly id="104393862" type="building.yes" color="255,230,230" fill="1" layer="-1.00" shape="1312.46,2185.52 1322.40,2175.85 1332.32,2166.16 1331.72,2161.87 1319.39,2155.69 1307.06,2149.53 1299.51,2158.07 1303.66,2160.14 1303.54,2160.39 1306.27,2161.86 1306.60,2161.29 1312.19,2163.96 1311.80,2164.75 1315.14,2166.42 1316.38,2167.98 1313.54,2172.26 1312.64,2171.94 1310.88,2173.58 1309.69,2172.32 1307.33,2174.62 1308.65,2175.99 1305.41,2178.81 1312.46,2185.52"/>
    <poly id="104393864" type="building.yes" color="255,230,230" fill="1" layer="-1.00" shape="1260.76,2126.24 1252.26,2121.94 1243.75,2117.66 1227.27,2154.60 1227.16,2154.82 1242.84,2162.06 1248.36,2150.90 1248.45,2150.73 1237.20,2145.45 1238.21,2143.48 1239.21,2143.31 1243.02,2134.91 1242.42,2133.89 1243.26,2132.24 1254.92,2138.03 1260.76,2126.24"/>
    <poly id="104393865" type="building.yes" color="255,230,230" fill="1" layer="-1.00" shape="1212.93,2221.49 1215.11,2216.82 1215.42,2216.16 1203.19,2210.25 1203.99,2208.45 1196.47,2204.74 1193.22,2212.01 1211.84,2220.98 1212.93,2221.49"/>
    <poly id="104393866" type="building.apartments" color="255,230,230" fill="1" layer="-1.00" shape="1142.07,2130.32 1147.01,2124.70 1147.15,2124.86 1149.15,2122.62 1148.99,2122.48 1153.95,2116.81 1145.63,2109.29 1139.63,2116.03 1133.62,2122.76 1142.07,2130.32"/>
    <poly id="104950909" type="landuse.brownfield" color="194,194,130" fill="1" layer="-3.00" shape="3521.54,2096.42 3654.93,2152.54 3701.92,2044.05 3666.70,2028.64 3673.30,2013.63 3642.39,2000.61 3635.93,2015.22 3569.64,1987.89 3521.54,2096.42"/>
    <poly id="104961429" type="building.yes" color="255,230,230" fill="1" layer="-1.00" shape="1147.27,1789.58 1147.17,1789.88 1144.15,1788.76 1143.46,1790.65 1146.48,1791.75 1146.41,1791.95 1148.85,1793.02 1149.63,1790.60 1147.27,1789.58"/>
    <poly id="104971175" type="building.apartments" color="255,230,230" fill="1" layer="-1.00" shape="1190.89,2125.54 1165.13,2102.60 1157.55,2095.89 1151.59,2102.59 1145.63,2109.29 1153.95,2116.81 1155.28,2118.01 1164.16,2108.51 1165.96,2110.13 1165.53,2110.61 1171.01,2115.42 1171.50,2115.02 1173.06,2116.42 1169.36,2120.84 1179.12,2129.45 1182.65,2125.62 1184.22,2126.03 1189.00,2130.20 1190.89,2125.54"/>
    <poly id="104971176" type="building.yes" color="255,230,230" fill="1" layer="-1.00" shape="1154.14,2141.01 1157.97,2136.63 1169.59,2147.04 1165.76,2151.35 1154.14,2141.01"/>
    <poly id="104971177" type="building.yes" color="255,230,230" fill="1" layer="-1.00" shape="1147.73,2159.51 1143.65,2155.86 1152.10,2146.19 1150.49,2144.67 1150.12,2145.13 1141.50,2137.53 1141.98,2137.03 1140.03,2135.33 1134.38,2141.71 1135.25,2142.48 1132.40,2145.75 1121.72,2136.17 1127.67,2129.46 1133.62,2122.76 1142.07,2130.32 1154.14,2141.01 1165.76,2151.35 1175.55,2160.10 1174.55,2162.37 1173.06,2165.71 1164.81,2158.51 1165.23,2157.98 1161.51,2154.48 1155.97,2160.64 1156.22,2160.88 1153.12,2164.29 1147.73,2159.51"/>
    <poly id="104971178" type="building.apartments" color="255,230,230" fill="1" layer="-1.00" shape="1083.08,1829.70 1081.33,1834.33 1081.00,1835.19 1073.74,1832.57 1073.92,1832.09 1071.63,1831.35 1068.55,1839.33 1074.66,1841.59 1073.13,1845.98 1054.59,1839.26 1057.81,1830.42 1061.02,1821.59 1083.08,1829.70"/>
    <poly id="104971181" type="building.apartments" color="255,230,230" fill="1" layer="-1.00" shape="1189.13,2090.21 1175.59,2083.42 1173.15,2088.52 1172.07,2089.49 1167.18,2085.04 1165.67,2086.83 1166.35,2087.50 1161.56,2092.73 1160.88,2092.16 1157.55,2095.89 1165.13,2102.60 1170.83,2096.10 1169.38,2094.91 1170.88,2093.15 1173.95,2095.73 1174.93,2094.67 1175.90,2093.62 1185.10,2097.92 1186.59,2094.96 1186.71,2095.04 1189.13,2090.21"/>
    <poly id="104971182" type="building.yes" color="255,230,230" fill="1" layer="-1.00" shape="1252.41,2038.85 1267.06,2047.25 1268.92,2043.89 1271.86,2038.70 1273.55,2035.71 1258.88,2027.37 1252.41,2038.85"/>
    <poly id="104971183" type="building.detached" color="255,230,230" fill="1" layer="-1.00" shape="1066.51,2057.80 1059.65,2055.89 1058.25,2060.90 1065.10,2062.82 1066.51,2057.80"/>
    <poly id="104971184" type="building.detached" color="255,230,230" fill="1" layer="-1.00" shape="1019.42,2055.80 1014.52,2064.13 1017.93,2066.27 1022.98,2057.91 1019.42,2055.80"/>
    <poly id="104971185" type="building.apartments" color="255,230,230" fill="1" layer="-1.00" shape="1198.33,2109.37 1189.96,2105.14 1190.62,2103.80 1183.83,2100.36 1185.10,2097.92 1186.59,2094.96 1186.71,2095.04 1189.13,2090.21 1190.07,2090.66 1190.24,2090.24 1192.37,2090.08 1193.39,2091.72 1193.19,2092.22 1196.40,2093.89 1199.74,2095.49 1199.95,2095.07 1202.02,2094.95 1203.01,2096.56 1202.84,2097.01 1203.67,2097.59 1198.33,2109.37"/>
    <poly id="104971188" type="building.detached" color="255,230,230" fill="1" layer="-1.00" shape="1046.69,2051.56 1039.46,2049.22 1038.01,2053.70 1045.24,2056.04 1046.69,2051.56"/>
    <poly id="104971189" type="building.apartments" color="255,230,230" fill="1" layer="-1.00" shape="1097.49,1827.28 1094.79,1833.96 1083.08,1829.70 1061.02,1821.59 1064.07,1813.50 1065.66,1809.29 1067.01,1805.30 1080.12,1810.17 1079.19,1812.98 1079.41,1813.09 1079.10,1813.92 1078.44,1813.67 1078.51,1813.54 1077.85,1813.32 1077.03,1815.72 1077.26,1815.80 1076.99,1816.65 1076.47,1816.50 1074.69,1820.58 1077.13,1821.45 1077.44,1820.78 1077.91,1820.97 1077.80,1821.24 1081.28,1822.45 1081.44,1822.02 1081.32,1821.92 1081.52,1821.51 1082.20,1821.79 1082.11,1821.93 1087.43,1823.82 1087.31,1824.16 1089.87,1825.11 1090.06,1824.63 1097.49,1827.28"/>
    <poly id="104971190" type="building.detached" color="255,230,230" fill="1" layer="-1.00" shape="1063.18,2052.31 1068.19,2053.71 1070.05,2047.07 1065.05,2045.67 1063.18,2052.31"/>
    <poly id="105279436" type="building.yes" color="255,230,230" fill="1" layer="-1.00" shape="1299.99,1553.40 1327.35,1514.53 1316.96,1506.17 1318.35,1504.50 1314.82,1501.74 1304.65,1514.34 1314.10,1522.02 1301.94,1537.18 1297.02,1533.33 1292.87,1538.47 1288.18,1534.59 1273.59,1522.72 1269.77,1527.42 1276.31,1532.86 1266.68,1544.52 1277.57,1553.65 1285.29,1544.07 1287.67,1545.87 1288.86,1544.28 1299.99,1553.40"/>
    <poly id="105481031" type="landuse.meadow" color="194,194,130" fill="1" layer="-3.00" shape="1141.88,1882.48 1138.15,1881.02 1140.31,1875.32 1144.05,1876.40 1141.88,1882.48"/>
    <poly id="105481033" type="landuse.meadow" color="194,194,130" fill="1" layer="-3.00" shape="1125.18,1870.14 1129.07,1871.26 1127.24,1876.74 1123.27,1875.41 1125.18,1870.14"/>
    <poly id="105731054" type="building.yes" color="255,230,230" fill="1" layer="-1.00" shape="1326.22,1445.13 1326.37,1446.01 1337.12,1453.03 1337.88,1453.07 1340.81,1448.07 1328.95,1440.56 1327.42,1443.11 1326.22,1445.13"/>
    <poly id="105731056" type="building.yes" color="255,230,230" fill="1" layer="-1.00" shape="1342.83,1449.37 1346.74,1451.80 1361.82,1428.14 1356.75,1424.41 1351.68,1420.68 1345.06,1430.82 1344.67,1431.40 1351.39,1435.50 1347.34,1442.06 1346.73,1441.68 1346.12,1441.82 1344.86,1443.79 1345.02,1444.42 1345.64,1444.82 1342.83,1449.37"/>
    <poly id="105785092" type="building.residential" color="255,230,230" fill="1" layer="-1.00" shape="3570.58,1140.49 3576.65,1128.95 3587.70,1134.12 3583.21,1142.95 3585.17,1143.73 3586.45,1141.22 3602.75,1148.58 3600.26,1153.57 3596.45,1151.92 3570.58,1140.49"/>
    <poly id="105785104" type="building.residential" color="255,230,230" fill="1" layer="-1.00" shape="3601.03,1109.16 3590.08,1103.71 3595.78,1093.43 3606.84,1099.22 3607.27,1099.47 3612.19,1101.87 3621.66,1106.57 3619.31,1111.72 3606.11,1105.65 3605.38,1103.20 3604.15,1103.29 3603.38,1104.92 3603.58,1105.15 3602.54,1107.31 3602.13,1107.16 3601.03,1109.16"/>
    <poly id="105785109" type="building.residential" color="255,230,230" fill="1" layer="-1.00" shape="3606.84,1099.22 3595.78,1093.43 3603.77,1078.71 3615.41,1083.32 3606.84,1099.22"/>
    <poly id="105785128" type="building.residential" color="255,230,230" fill="1" layer="-1.00" shape="3587.70,1134.12 3576.65,1128.95 3584.62,1113.98 3595.34,1119.64 3587.70,1134.12"/>
    <poly id="105785521" type="building.residential" color="255,230,230" fill="1" layer="-1.00" shape="3580.00,1176.15 3584.50,1166.51 3586.84,1161.62 3590.96,1163.45 3589.96,1165.39 3587.71,1166.06 3587.27,1167.16 3588.18,1167.57 3589.81,1167.02 3600.40,1171.68 3595.06,1182.89 3580.00,1176.15"/>
    <poly id="105785522" type="amenity.school" color="237,199,199" fill="1" layer="-1.00" shape="3470.93,1181.62 3481.58,1186.64 3477.10,1196.02 3478.52,1196.68 3479.39,1196.45 3493.21,1202.77 3497.55,1193.95 3509.18,1199.35 3501.88,1213.03 3490.45,1207.78 3464.41,1195.98 3470.93,1181.62"/>
    <poly id="105785522#1" type="building.residential" color="255,230,230" fill="1" layer="-1.00" shape="3470.93,1181.62 3481.58,1186.64 3477.10,1196.02 3478.52,1196.68 3479.39,1196.45 3493.21,1202.77 3497.55,1193.95 3509.18,1199.35 3501.88,1213.03 3490.45,1207.78 3464.41,1195.98 3470.93,1181.62"/>
    <poly id="105785523" type="building.residential" color="255,230,230" fill="1" layer="-1.00" shape="3595.06,1182.89 3600.40,1171.68 3600.73,1171.03 3604.60,1172.83 3604.02,1174.11 3606.11,1175.03 3606.26,1174.74 3607.77,1175.37 3607.67,1175.71 3610.86,1177.11 3605.79,1187.68 3595.06,1182.89"/>
    <poly id="105785524" type="building.residential" color="255,230,230" fill="1" layer="-1.00" shape="3509.18,1199.35 3516.48,1185.77 3503.23,1179.81 3500.29,1185.75 3502.35,1186.65 3501.31,1188.76 3500.24,1188.27 3497.55,1193.95 3509.18,1199.35"/>
    <poly id="105785525" type="building.residential" color="255,230,230" fill="1" layer="-1.00" shape="3564.64,1151.65 3570.56,1140.51 3596.45,1151.92 3593.90,1157.29 3588.27,1155.10 3587.60,1155.67 3585.59,1154.75 3585.36,1154.23 3585.89,1153.76 3581.34,1151.67 3580.93,1150.80 3581.77,1149.25 3580.52,1148.57 3575.93,1156.75 3564.64,1151.65"/>
    <poly id="105785526" type="building.residential" color="255,230,230" fill="1" layer="-1.00" shape="3501.88,1213.03 3496.44,1223.86 3485.76,1218.15 3490.45,1207.78 3501.88,1213.03"/>
    <poly id="105786483" type="building.residential" color="255,230,230" fill="1" layer="-1.00" shape="3541.47,1112.25 3533.86,1126.23 3545.37,1131.75 3552.84,1117.74 3541.47,1112.25"/>
    <poly id="105786484" type="building.residential" color="255,230,230" fill="1" layer="-1.00" shape="3553.15,1059.38 3557.02,1050.31 3556.24,1049.96 3544.56,1045.04 3543.34,1044.55 3539.71,1052.70 3534.29,1050.42 3534.91,1049.05 3530.95,1047.27 3529.92,1049.78 3530.54,1050.04 3529.60,1052.04 3529.15,1051.84 3527.93,1054.69 3550.65,1064.59 3553.15,1059.38"/>
    <poly id="105786485" type="building.residential" color="255,230,230" fill="1" layer="-1.00" shape="3571.86,988.46 3583.50,992.52 3580.24,1002.13 3578.43,1007.34 3571.34,1004.71 3559.88,1000.49 3571.86,988.46"/>
    <poly id="105786487" type="building.residential" color="255,230,230" fill="1" layer="-1.00" shape="3576.45,1041.02 3574.62,1045.46 3576.76,1046.25 3575.26,1050.00 3574.88,1049.83 3572.21,1056.64 3572.69,1056.84 3582.95,1061.15 3590.70,1046.67 3579.73,1042.29 3576.45,1041.02"/>
    <poly id="105786488" type="building.residential" color="255,230,230" fill="1" layer="-1.00" shape="3567.26,1090.94 3575.43,1075.50 3550.65,1064.59 3527.93,1054.69 3526.07,1059.47 3522.25,1068.90 3522.00,1069.53 3529.38,1073.05 3532.65,1074.56 3535.20,1069.66 3539.30,1071.44 3540.26,1070.72 3541.15,1068.85 3557.01,1075.53 3558.14,1075.32 3558.81,1073.76 3561.21,1074.84 3555.57,1085.44 3567.26,1090.94"/>
    <poly id="105786490" type="building.residential" color="255,230,230" fill="1" layer="-1.00" shape="3531.52,1157.58 3538.40,1144.77 3525.21,1138.49 3524.62,1138.20 3522.12,1143.51 3520.74,1142.85 3520.10,1144.20 3521.49,1144.86 3518.29,1151.65 3531.52,1157.58"/>
    <poly id="105786491" type="building.residential" color="255,230,230" fill="1" layer="-1.00" shape="3518.27,1101.02 3510.47,1115.26 3520.99,1120.09 3528.42,1105.91 3518.27,1101.02"/>
    <poly id="105786493" type="building.residential" color="255,230,230" fill="1" layer="-1.00" shape="3575.43,1075.50 3582.95,1061.15 3572.69,1056.84 3567.73,1066.28 3565.23,1065.29 3565.59,1064.51 3553.15,1059.38 3550.65,1064.59 3575.43,1075.50"/>
    <poly id="105786494" type="building.residential" color="255,230,230" fill="1" layer="-1.00" shape="3560.33,1103.73 3567.26,1090.94 3555.57,1085.44 3550.76,1093.96 3549.32,1094.07 3548.97,1091.77 3533.67,1084.75 3531.06,1089.78 3536.13,1092.20 3549.02,1098.40 3560.33,1103.73"/>
    <poly id="105786498" type="building.residential" color="255,230,230" fill="1" layer="-1.00" shape="3529.09,1130.40 3527.73,1129.75 3527.10,1131.08 3528.45,1131.74 3527.14,1134.47 3525.21,1138.49 3538.40,1144.77 3545.37,1131.75 3533.86,1126.23 3531.59,1125.18 3529.09,1130.40"/>
    <poly id="105786500" type="building.residential" color="255,230,230" fill="1" layer="-1.00" shape="3592.33,1043.78 3598.26,1032.38 3587.78,1027.52 3582.35,1037.48 3579.73,1042.29 3590.70,1046.67 3592.33,1043.78"/>
    <poly id="105786501" type="building.residential" color="255,230,230" fill="1" layer="-1.00" shape="3528.57,1163.13 3531.52,1157.58 3518.29,1151.65 3517.74,1151.39 3515.68,1155.49 3514.31,1154.83 3513.61,1156.25 3514.94,1156.87 3512.42,1161.98 3510.81,1165.26 3524.18,1171.37 3528.57,1163.13"/>
    <poly id="105786502" type="building.residential" color="255,230,230" fill="1" layer="-1.00" shape="3587.78,1027.52 3593.25,1016.24 3591.86,1015.79 3591.59,1016.60 3589.41,1015.81 3588.77,1017.30 3569.47,1009.86 3571.34,1004.71 3578.43,1007.34 3593.59,1012.98 3605.51,1018.62 3598.26,1032.38 3587.78,1027.52"/>
    <poly id="105786504" type="building.residential" color="255,230,230" fill="1" layer="-1.00" shape="3503.84,1066.69 3504.51,1070.29 3510.46,1072.94 3507.52,1078.95 3490.29,1070.98 3512.85,1048.09 3516.65,1049.77 3514.51,1055.01 3519.13,1057.24 3518.87,1057.93 3518.06,1059.85 3512.69,1057.73 3503.84,1066.69"/>
    <poly id="105786505" type="building.residential" color="255,230,230" fill="1" layer="-1.00" shape="3510.98,1097.49 3494.34,1089.45 3496.34,1085.83 3497.24,1084.17 3497.10,1081.30 3489.40,1077.87 3486.46,1074.82 3490.29,1070.96 3507.52,1078.95 3512.49,1081.29 3508.44,1089.31 3513.83,1092.10 3512.68,1094.31 3510.98,1097.49"/>
    <poly id="105786507" type="building.residential" color="255,230,230" fill="1" layer="-1.00" shape="3518.27,1101.02 3528.42,1105.91 3536.13,1092.20 3531.06,1089.78 3525.74,1087.34 3519.90,1098.07 3518.27,1101.02"/>
    <poly id="105786508" type="building.residential" color="255,230,230" fill="1" layer="-1.00" shape="3531.06,1089.78 3525.74,1087.34 3512.49,1081.29 3507.56,1078.92 3510.46,1072.94 3514.23,1065.20 3522.25,1068.90 3522.00,1069.53 3529.38,1073.05 3525.77,1080.50 3533.85,1084.41 3533.67,1084.75 3531.06,1089.78"/>
    <poly id="105787370" type="building.residential" color="255,230,230" fill="1" layer="-1.00" shape="3554.52,944.63 3516.03,929.70 3519.85,919.97 3558.39,934.90 3554.52,944.63"/>
    <poly id="105787371" type="building.residential" color="255,230,230" fill="1" layer="-1.00" shape="3580.54,956.61 3585.00,945.26 3599.46,950.82 3594.77,962.39 3580.54,956.61"/>
    <poly id="105787373" type="building.residential" color="255,230,230" fill="1" layer="-1.00" shape="3609.55,965.77 3608.75,967.81 3594.77,962.39 3599.46,950.82 3605.63,953.22 3613.18,956.17 3609.55,965.77"/>
    <poly id="105787374" type="building.residential" color="255,230,230" fill="1" layer="-1.00" shape="3574.35,972.49 3568.98,970.60 3574.56,956.49 3577.03,956.15 3576.86,954.80 3566.24,950.95 3570.73,939.68 3577.90,942.48 3585.00,945.26 3580.54,956.61 3574.35,972.49"/>
    <poly id="105787379" type="building.residential" color="255,230,230" fill="1" layer="-1.00" shape="3566.24,950.95 3561.21,949.06 3553.85,946.29 3554.52,944.63 3558.39,934.90 3560.14,935.57 3570.73,939.68 3566.24,950.95"/>
    <poly id="105799125" type="building.residential" color="255,230,230" fill="1" layer="-1.00" shape="3634.63,1233.94 3630.27,1232.00 3609.50,1222.71 3595.74,1216.52 3600.59,1205.90 3639.17,1223.26 3634.63,1233.94"/>
    <poly id="105803612" type="building.residential" color="255,230,230" fill="1" layer="-1.00" shape="3389.88,1621.91 3389.99,1621.63 3388.66,1621.04 3388.53,1621.32 3381.30,1618.11 3381.43,1617.84 3381.00,1617.65 3385.84,1606.75 3387.86,1607.64 3388.42,1606.37 3391.75,1607.85 3391.19,1609.12 3393.69,1610.22 3393.84,1609.88 3394.78,1610.29 3394.63,1610.64 3397.10,1611.73 3397.66,1610.46 3400.99,1611.94 3400.43,1613.20 3402.20,1613.98 3402.29,1613.76 3402.48,1613.83 3397.56,1624.98 3397.35,1624.89 3397.22,1625.17 3389.88,1621.91"/>
    <poly id="105803613" type="building.residential" color="255,230,230" fill="1" layer="-1.00" shape="3378.69,1806.04 3371.11,1802.36 3363.39,1798.62 3368.95,1787.00 3379.33,1792.09 3380.42,1789.94 3385.39,1792.22 3378.69,1806.04"/>
    <poly id="105803616" type="building.residential" color="255,230,230" fill="1" layer="-1.00" shape="3354.41,1606.17 3354.01,1607.07 3351.55,1605.98 3351.65,1605.75 3351.18,1605.54 3351.07,1605.77 3348.62,1604.69 3349.02,1603.79 3344.44,1601.75 3349.10,1593.12 3354.26,1595.36 3354.34,1595.18 3357.21,1596.42 3357.14,1596.61 3362.63,1598.99 3358.75,1607.79 3358.63,1608.01 3354.41,1606.17"/>
    <poly id="105803619" type="building.commercial" color="255,230,230" fill="1" layer="-1.00" shape="3314.13,1720.96 3320.20,1707.26 3328.89,1711.16 3322.76,1724.78 3314.13,1720.96"/>
    <poly id="105803620" type="building.residential" color="255,230,230" fill="1" layer="-1.00" shape="3459.93,1758.14 3460.07,1757.81 3461.94,1758.63 3469.13,1742.09 3479.29,1746.65 3478.10,1749.36 3478.80,1750.63 3478.03,1752.39 3476.60,1752.79 3475.67,1754.93 3474.58,1757.41 3475.28,1758.71 3474.51,1760.48 3473.08,1760.85 3471.92,1763.50 3459.93,1758.14"/>
    <poly id="105803621" type="building.commercial" color="255,230,230" fill="1" layer="-1.00" shape="3320.83,1761.43 3324.59,1753.55 3327.40,1747.67 3360.58,1762.40 3357.37,1769.64 3353.70,1777.92 3320.83,1761.43"/>
    <poly id="105803622" type="building.commercial" color="255,230,230" fill="1" layer="-1.00" shape="3249.91,1469.55 3238.85,1464.68 3251.39,1436.40 3264.23,1442.06 3267.95,1443.70 3255.41,1471.97 3249.91,1469.55"/>
    <poly id="105803623" type="building.commercial" color="255,230,230" fill="1" layer="-1.00" shape="3338.36,1681.08 3326.75,1675.92 3337.46,1651.96 3329.09,1648.17 3335.06,1634.73 3337.93,1636.00 3364.99,1647.96 3360.04,1659.03 3359.73,1659.70 3349.86,1655.30 3338.36,1681.08"/>
    <poly id="105803624" type="building.residential" color="255,230,230" fill="1" layer="-1.00" shape="3347.86,1791.09 3351.53,1782.74 3353.70,1777.92 3358.58,1780.16 3357.67,1782.22 3360.19,1783.57 3360.48,1782.85 3368.95,1787.00 3363.39,1798.62 3355.62,1794.85 3347.86,1791.09"/>
    <poly id="105803625" type="building.commercial" color="255,230,230" fill="1" layer="-1.00" shape="3238.43,1465.62 3231.71,1462.65 3244.67,1433.43 3251.39,1436.40 3238.85,1464.68 3238.43,1465.62"/>
    <poly id="105803627" type="building.commercial" color="255,230,230" fill="1" layer="-1.00" shape="3410.18,1685.59 3411.06,1683.55 3416.69,1670.89 3433.15,1678.17 3435.55,1679.23 3431.23,1688.89 3426.69,1686.91 3424.46,1691.95 3410.18,1685.59"/>
    <poly id="105803628" type="building.residential" color="255,230,230" fill="1" layer="-1.00" shape="3328.45,1594.73 3327.69,1592.59 3341.06,1567.59 3350.75,1572.70 3352.52,1573.66 3345.13,1587.88 3350.38,1590.70 3349.10,1593.12 3344.44,1601.75 3328.45,1594.73"/>
    <poly id="105803629" type="building.residential" color="255,230,230" fill="1" layer="-1.00" shape="3467.38,1741.27 3475.09,1723.79 3487.19,1729.15 3487.01,1729.56 3487.61,1731.24 3486.59,1733.53 3484.95,1734.11 3484.57,1734.95 3481.42,1741.94 3482.05,1743.72 3480.91,1746.28 3479.29,1746.65 3469.13,1742.09 3467.38,1741.27"/>
    <poly id="105803630" type="building.residential" color="255,230,230" fill="1" layer="-1.00" shape="3394.23,1813.57 3399.54,1801.85 3409.90,1806.71 3410.85,1804.60 3416.01,1807.09 3415.53,1808.19 3409.63,1821.04 3401.59,1817.13 3394.23,1813.57"/>
    <poly id="105803631" type="building.residential" color="255,230,230" fill="1" layer="-1.00" shape="3424.07,1767.36 3427.43,1759.43 3433.82,1762.28 3432.97,1764.09 3438.25,1766.41 3438.44,1765.99 3441.18,1767.22 3441.00,1767.62 3450.93,1771.97 3451.04,1773.27 3452.57,1773.96 3453.83,1771.01 3453.27,1770.77 3455.15,1766.42 3455.71,1766.66 3457.23,1763.13 3455.56,1762.53 3454.41,1763.57 3444.52,1759.29 3444.35,1759.67 3441.65,1758.49 3441.81,1758.12 3436.64,1755.87 3439.54,1749.08 3459.93,1758.14 3471.92,1763.50 3467.25,1774.01 3462.60,1784.48 3449.31,1778.60 3440.82,1774.82 3429.41,1769.74 3424.07,1767.36"/>