<?xml version="1.0"?>
<!-- generated on 2018-12-08 18:09:05.111881 by $Id: route2trips.py 23614 2017-03-22 13:02:46Z luecken $ via randomTrips.py
  options: 
-->
<routes xmlns:xsi="http://www.w3.org/2001/XMLSchema-instance" xsi:noNamespaceSchemaLocation="http://sumo.dlr.de/xsd/routes_file.xsd">
    <vType id="passenger" vClass="passenger">
    </vType>
    <trip id="veh0" depart="0.00" departLane="best" from="373996562#0" to="-169711650#1" type="passenger"/>
    <trip id="veh1" depart="3.52" departLane="best" from="-4396910#0" to="-42732336#2" type="passenger"/>
    <trip id="veh2" depart="7.05" departLane="best" from="42732331#2" to="374621841#0" type="passenger"/>
    <trip id="veh3" depart="10.57" departLane="best" from="4597055#0" to="-23899000" type="passenger"/>
    <trip id="veh4" depart="14.09" departLane="best" from="119914238#0" to="-172920331#3" type="passenger"/>
    <trip id="veh5" depart="17.61" departLane="best" from="-380162920" to="20160206#1" type="passenger"/>
    <trip id="veh6" depart="21.14" departLane="best" from="-147659855#1" to="-376720441#0" type="passenger"/>
    <trip id="veh7" depart="24.66" departLane="best" from="374152381#8" to="24700551#0" type="passenger"/>
    <trip id="veh8" depart="28.18" departLane="best" from="-42091230" to="281073954#2" type="passenger"/>
    <trip id="veh9" depart="31.70" departLane="best" from="4543571#0" to="-119914238#8" type="passenger"/>
    <trip id="veh10" depart="35.23" departLane="best" from="4543570#0" to="377644586#0" type="passenger"/>
    <trip id="veh11" depart="38.75" departLane="best" from="-4597034#2" to="-36830368" type="passenger"/>
    <trip id="veh12" depart="42.27" departLane="best" from="549316653#0" to="-4603463#2" type="passenger"/>
    <trip id="veh13" depart="45.79" departLane="best" from="-188944334#0" to="-247340730#0" type="passenger"/>
    <trip id="veh14" depart="49.32" departLane="best" from="4594805#3" to="332164871#0" type="passenger"/>
    <trip id="veh15" depart="52.84" departLane="best" from="4543570#2" to="42689935#5" type="passenger"/>
    <trip id="veh16" depart="56.36" departLane="best" from="24700556#1" to="551121710" type="passenger"/>
    <trip id="veh17" depart="59.88" departLane="best" from="-53163720#3" to="24700556#4" type="passenger"/>
    <trip id="veh18" depart="63.41" departLane="best" from="4581770#0" to="342159189" type="passenger"/>
    <trip id="veh19" depart="66.93" departLane="best" from="4596990#2" to="25781742#1" type="passenger"/>
    <trip id="veh20" depart="70.45" departLane="best" from="377644587#2" to="-172922877#4" type="passenger"/>
    <trip id="veh21" depart="73.97" departLane="best" from="-42689935#2" to="-4596986#0" type="passenger"/>
    <trip id="veh22" depart="77.50" departLane="best" from="-23075532#1" to="-4594129#0" type="passenger"/>
    <trip id="veh23" depart="81.02" departLane="best" from="36954721#4" to="-53542202#0" type="passenger"/>
    <trip id="veh24" depart="84.54" departLane="best" from="-506732316" to="-42689935#3" type="passenger"/>
    <trip id="veh25" depart="88.07" departLane="best" from="-436413565#9" to="5133252#1" type="passenger"/>
    <trip id="veh26" depart="91.59" departLane="best" from="-36830367#1" to="42689935#4" type="passenger"/>
    <trip id="veh27" depart="95.11" departLane="best" from="-34546737#1" to="-55816482#5" type="passenger"/>
    <trip id="veh28" depart="98.63" departLane="best" from="631641755#0" to="374152381#1" type="passenger"/>
    <trip id="veh29" depart="102.16" departLane="best" from="25356421#1" to="374621845#1" type="passenger"/>
    <trip id="veh30" depart="105.68" departLane="best" from="4594805#0" to="42732336#12" type="passenger"/>
    <trip id="veh31" depart="109.20" departLane="best" from="-42689935#3" to="-172920331#6" type="passenger"/>
    <trip id="veh32" depart="112.72" departLane="best" from="-4596984" to="-4543574#4" type="passenger"/>
    <trip id="veh33" depart="116.25" departLane="best" from="-378173217#1" to="52960099#0" type="passenger"/>
    <trip id="veh34" depart="119.77" departLane="best" from="4597029#1" to="-4597033#0" type="passenger"/>
    <trip id="veh36" depart="126.81" departLane="best" from="-436413565#6" to="-4396910#4" type="passenger"/>
    <trip id="veh37" depart="130.34" departLane="best" from="25693290#1" to="-4543571#1" type="passenger"/>
    <trip id="veh38" depart="133.86" departLane="best" from="31305656#0" to="4597039#0" type="passenger"/>
    <trip id="veh39" depart="137.38" departLane="best" from="-551121710" to="-42732334#1" type="passenger"/>
    <trip id="veh40" depart="140.90" departLane="best" from="645343613#1" to="20160206#3" type="passenger"/>
    <trip id="veh41" depart="144.43" departLane="best" from="-23735660#3" to="36954721#0" type="passenger"/>
    <trip id="veh42" depart="147.95" departLane="best" from="4401840#0" to="129104626#6" type="passenger"/>
    <trip id="veh43" depart="151.47" departLane="best" from="-172921857#0" to="-55816482#8" type="passenger"/>
    <trip id="veh44" depart="155.00" departLane="best" from="645343613#0" to="23735660#3" type="passenger"/>
    <trip id="veh45" depart="158.52" departLane="best" from="590861828#0" to="4594129#1" type="passenger"/>
    <trip id="veh46" depart="162.04" departLane="best" from="-119914238#9" to="42103709#1" type="passenger"/>
    <trip id="veh47" depart="165.56" departLane="best" from="374621840" to="23735661#6" type="passenger"/>
    <trip id="veh48" depart="169.09" departLane="best" from="-436413565#9" to="374152381#10" type="passenger"/>
    <trip id="veh49" depart="172.61" departLane="best" from="-23735661#0" to="147659855#1" type="passenger"/>
    <trip id="veh50" depart="176.13" departLane="best" from="172920329#0" to="53163720#8" type="passenger"/>
    <trip id="veh51" depart="179.65" departLane="best" from="4597029#0" to="-4543571#1" type="passenger"/>
    <trip id="veh52" depart="183.18" departLane="best" from="220647519#0" to="-374344531#1" type="passenger"/>
    <trip id="veh53" depart="186.70" departLane="best" from="4740762#0" to="4596986#1" type="passenger"/>
    <trip id="veh54" depart="190.22" departLane="best" from="-4543954#3" to="374152364#2" type="passenger"/>
    <trip id="veh55" depart="193.74" departLane="best" from="333607513#11" to="-36830368" type="passenger"/>
    <trip id="veh56" depart="197.27" departLane="best" from="436413565#8" to="23735660#3" type="passenger"/>
    <trip id="veh57" depart="200.79" departLane="best" from="-105802525#0" to="-4597054" type="passenger"/>
    <trip id="veh58" depart="204.31" departLane="best" from="-147659848#1" to="481373508#1" type="passenger"/>
    <trip id="veh59" depart="207.83" departLane="best" from="4597032#3" to="4543570#3" type="passenger"/>
    <trip id="veh60" depart="211.36" departLane="best" from="-4594129#1" to="-176112922#0" type="passenger"/>
    <trip id="veh61" depart="214.88" departLane="best" from="4597032#0" to="53163720#2" type="passenger"/>
    <trip id="veh62" depart="218.40" departLane="best" from="-172922877#3" to="42732332#2" type="passenger"/>
    <trip id="veh63" depart="221.92" departLane="best" from="431664599#0" to="-31586811#0" type="passenger"/>
    <trip id="veh64" depart="225.45" departLane="best" from="174172052#0" to="24700556#1" type="passenger"/>
    <trip id="veh65" depart="228.97" departLane="best" from="-436413565#7" to="4596986#4" type="passenger"/>
    <trip id="veh66" depart="232.49" departLane="best" from="247340730#0" to="42689935#5" type="passenger"/>
    <trip id="veh67" depart="236.02" departLane="best" from="-374621842#4" to="-4597032#3" type="passenger"/>
    <trip id="veh68" depart="239.54" departLane="best" from="645343613#0" to="374152384#1" type="passenger"/>
    <trip id="veh69" depart="243.06" departLane="best" from="129104626#8" to="220648313#1" type="passenger"/>
    <trip id="veh70" depart="246.58" departLane="best" from="-237716438" to="-42732336#4" type="passenger"/>
    <trip id="veh71" depart="250.11" departLane="best" from="-4597033#0" to="281073954#2" type="passenger"/>
    <trip id="veh72" depart="253.63" departLane="best" from="-174172052#1" to="370361654#0" type="passenger"/>
    <trip id="veh73" depart="257.15" departLane="best" from="4596988#1" to="-23075530" type="passenger"/>
    <trip id="veh74" depart="260.67" departLane="best" from="-42732333#3" to="374344539#0" type="passenger"/>
    <trip id="veh75" depart="264.20" departLane="best" from="-378331294#0" to="-332164877#3" type="passenger"/>
    <trip id="veh76" depart="267.72" departLane="best" from="5133264#3" to="25356421#1" type="passenger"/>
    <trip id="veh77" depart="271.24" departLane="best" from="172922877#2" to="431664593" type="passenger"/>
    <trip id="veh78" depart="274.76" departLane="best" from="4543570#2" to="-375958862" type="passenger"/>
    <trip id="veh79" depart="278.29" departLane="best" from="-220648313#2" to="147659855#1" type="passenger"/>
    <trip id="veh80" depart="281.81" departLane="best" from="42732319#8" to="374344542#4" type="passenger"/>
    <trip id="veh82" depart="288.85" departLane="best" from="4596990#2" to="-4396919#2" type="passenger"/>
    <trip id="veh83" depart="292.38" departLane="best" from="-374344531#2" to="161677844" type="passenger"/>
    <trip id="veh84" depart="295.90" departLane="best" from="11482839#1" to="-4594805#1" type="passenger"/>
    <trip id="veh85" depart="299.42" departLane="best" from="-42732336#14" to="4677626#1" type="passenger"/>
    <trip id="veh86" depart="302.95" departLane="best" from="147664165#2" to="4594143" type="passenger"/>
    <trip id="veh87" depart="306.47" departLane="best" from="25217543#2" to="-175298126#0" type="passenger"/>
    <trip id="veh89" depart="313.51" departLane="best" from="4594805#5" to="-374152381#1" type="passenger"/>
    <trip id="veh90" depart="317.04" departLane="best" from="176112922#0" to="-42732333#2" type="passenger"/>
    <trip id="veh91" depart="320.56" departLane="best" from="-55816482#4" to="-180021208#1" type="passenger"/>
    <trip id="veh92" depart="324.08" departLane="best" from="-53163720#3" to="598074991#0" type="passenger"/>
    <trip id="veh93" depart="327.60" departLane="best" from="-436413565#7" to="431306412#0" type="passenger"/>
    <trip id="veh94" depart="331.13" departLane="best" from="172920331#1" to="129104626#7" type="passenger"/>
    <trip id="veh95" depart="334.65" departLane="best" from="549316653#0" to="631641755#3" type="passenger"/>
    <trip id="veh96" depart="338.17" departLane="best" from="25278674#5" to="42091230" type="passenger"/>
    <trip id="veh97" depart="341.69" departLane="best" from="-333607513#10" to="-4596990#4" type="passenger"/>
    <trip id="veh98" depart="345.22" departLane="best" from="55816482#7" to="25781742#5" type="passenger"/>
    <trip id="veh99" depart="348.74" departLane="best" from="247340730#1" to="42732329#2" type="passenger"/>
    <trip id="veh100" depart="352.26" departLane="best" from="-172920331#7" to="27927583#3" type="passenger"/>
    <trip id="veh101" depart="355.78" departLane="best" from="220647519#3" to="4592581" type="passenger"/>
    <trip id="veh102" depart="359.31" departLane="best" from="-333607513#2" to="53542202#2" type="passenger"/>
    <trip id="veh103" depart="362.83" departLane="best" from="-175298126#9" to="-374621840" type="passenger"/>
    <trip id="veh104" depart="366.35" departLane="best" from="317871682#0" to="374595316#0" type="passenger"/>
    <trip id="veh105" depart="369.87" departLane="best" from="-42732333#0" to="-28789621#1" type="passenger"/>
    <trip id="veh106" depart="373.40" departLane="best" from="4597039#5" to="-4396910#3" type="passenger"/>
    <trip id="veh107" depart="376.92" departLane="best" from="317871681#0" to="342159190" type="passenger"/>
    <trip id="veh108" depart="380.44" departLane="best" from="-645343614" to="27927583#3" type="passenger"/>
    <trip id="veh109" depart="383.97" departLane="best" from="23735661#6" to="5133251#3" type="passenger"/>
    <trip id="veh110" depart="387.49" departLane="best" from="-376720436#1" to="42091230" type="passenger"/>
    <trip id="veh112" depart="394.53" departLane="best" from="374344535#9" to="-4596994#0" type="passenger"/>
    <trip id="veh113" depart="398.06" departLane="best" from="-4596986#0" to="42732331#3" type="passenger"/>
    <trip id="veh114" depart="401.58" departLane="best" from="-175152917#1" to="172920331#10" type="passenger"/>
    <trip id="veh115" depart="405.10" departLane="best" from="8003639#0" to="631641755#4" type="passenger"/>
    <trip id="veh116" depart="408.62" departLane="best" from="-175152917#1" to="-42732333#1" type="passenger"/>
    <trip id="veh117" depart="412.15" departLane="best" from="-436413565#7" to="5133251#1" type="passenger"/>
    <trip id="veh118" depart="415.67" departLane="best" from="4597032#7" to="4596990#4" type="passenger"/>
    <trip id="veh119" depart="419.19" departLane="best" from="-481373508#1" to="-36944882" type="passenger"/>
    <trip id="veh120" depart="422.71" departLane="best" from="374152384#0" to="-119914238#9" type="passenger"/>
    <trip id="veh121" depart="426.24" departLane="best" from="4543574#3" to="-4596993" type="passenger"/>
    <trip id="veh122" depart="429.76" departLane="best" from="374344534#1" to="5133264#3" type="passenger"/>
    <trip id="veh123" depart="433.28" departLane="best" from="-25278674#2" to="-27708234" type="passenger"/>
    <trip id="veh124" depart="436.80" departLane="best" from="-23735660#2" to="247340730#2" type="passenger"/>
    <trip id="veh125" depart="440.33" departLane="best" from="-4396816#2" to="332164873#1" type="passenger"/>
    <trip id="veh126" depart="443.85" departLane="best" from="42103967#3" to="-378331294#0" type="passenger"/>
    <trip id="veh127" depart="447.37" departLane="best" from="36954721#1" to="-4543571#2" type="passenger"/>
    <trip id="veh128" depart="450.90" departLane="best" from="180021208#0" to="4597055#1" type="passenger"/>
    <trip id="veh129" depart="454.42" departLane="best" from="4594805#0" to="-24700553#2" type="passenger"/>
    <trip id="veh130" depart="457.94" departLane="best" from="119914238#2" to="-4592573#0" type="passenger"/>
    <trip id="veh131" depart="461.46" departLane="best" from="-105802525#1" to="42732336#10" type="passenger"/>
    <trip id="veh132" depart="464.99" departLane="best" from="373996555#0" to="-4543571#0" type="passenger"/>
    <trip id="veh133" depart="468.51" departLane="best" from="42732332#2" to="24700556#4" type="passenger"/>
    <trip id="veh134" depart="472.03" departLane="best" from="119914238#8" to="-129104626#3" type="passenger"/>
    <trip id="veh135" depart="475.55" departLane="best" from="-175298126#1" to="4596994#1" type="passenger"/>
    <trip id="veh136" depart="479.08" departLane="best" from="4603408#5" to="24700551#0" type="passenger"/>
    <trip id="veh137" depart="482.60" departLane="best" from="4581778#0" to="27708236" type="passenger"/>
    <trip id="veh138" depart="486.12" departLane="best" from="-28789621#1" to="-31586811#0" type="passenger"/>
    <trip id="veh139" depart="489.64" departLane="best" from="-4594129#1" to="4597039#2" type="passenger"/>
    <trip id="veh140" depart="493.17" departLane="best" from="4402642" to="4594129#1" type="passenger"/>
    <trip id="veh141" depart="496.69" departLane="best" from="4603408#0" to="-42689935#3" type="passenger"/>
    <trip id="veh142" depart="500.21" departLane="best" from="-42732336#14" to="-25278674#3" type="passenger"/>
    <trip id="veh143" depart="503.73" departLane="best" from="436413565#9" to="4596994#2" type="passenger"/>
    <trip id="veh144" depart="507.26" departLane="best" from="-590861828#2" to="34546737#1" type="passenger"/>
    <trip id="veh145" depart="510.78" departLane="best" from="-333607513#1" to="48343154#1" type="passenger"/>
    <trip id="veh146" depart="514.30" departLane="best" from="4596990#5" to="55816482#6" type="passenger"/>
    <trip id="veh147" depart="517.82" departLane="best" from="4543571#0" to="4596993" type="passenger"/>
    <trip id="veh148" depart="521.35" departLane="best" from="-147659855#1" to="42732319#2" type="passenger"/>
    <trip id="veh149" depart="524.87" departLane="best" from="-4597029#1" to="48343154#2" type="passenger"/>
    <trip id="veh150" depart="528.39" departLane="best" from="4543570#0" to="4594805#4" type="passenger"/>
    <trip id="veh151" depart="531.92" departLane="best" from="4396910#3" to="-25356421#3" type="passenger"/>
    <trip id="veh152" depart="535.44" departLane="best" from="4597029#0" to="4594129#1" type="passenger"/>
    <trip id="veh153" depart="538.96" departLane="best" from="-42091230" to="4396919#2" type="passenger"/>
    <trip id="veh154" depart="542.48" departLane="best" from="172920331#5" to="-4597029#0" type="passenger"/>
    <trip id="veh155" depart="546.01" departLane="best" from="4401840#4" to="-42732336#8" type="passenger"/>
    <trip id="veh156" depart="549.53" departLane="best" from="-147659855#0" to="-375958863" type="passenger"/>
    <trip id="veh157" depart="553.05" departLane="best" from="-4596994#1" to="4594805#5" type="passenger"/>
    <trip id="veh158" depart="556.57" departLane="best" from="55816482#4" to="-4594805#1" type="passenger"/>
    <trip id="veh160" depart="563.62" departLane="best" from="610561277#3" to="23735661#4" type="passenger"/>
    <trip id="veh161" depart="567.14" departLane="best" from="52960099#0" to="-27708234" type="passenger"/>
    <trip id="veh162" depart="570.66" departLane="best" from="55896222#0" to="-374344531#1" type="passenger"/>
    <trip id="veh163" depart="574.19" departLane="best" from="55816482#0" to="-4543574#1" type="passenger"/>
    <trip id="veh164" depart="577.71" departLane="best" from="-23735660#3" to="147659855#1" type="passenger"/>
    <trip id="veh165" depart="581.23" departLane="best" from="42732319#7" to="-4597032#7" type="passenger"/>
    <trip id="veh166" depart="584.75" departLane="best" from="332164880#0" to="220647519#1" type="passenger"/>
    <trip id="veh167" depart="588.28" departLane="best" from="-42732336#8" to="380162920" type="passenger"/>
    <trip id="veh169" depart="595.32" departLane="best" from="247340730#0" to="42091230" type="passenger"/>
    <trip id="veh170" depart="598.85" departLane="best" from="42732333#0" to="374344540#1" type="passenger"/>
    <trip id="veh171" depart="602.37" departLane="best" from="-4603463#5" to="-220648313#3" type="passenger"/>
    <trip id="veh172" depart="605.89" departLane="best" from="374344535#0" to="-4603408#0" type="passenger"/>
    <trip id="veh173" depart="609.41" departLane="best" from="-4594805#7" to="4581770#5" type="passenger"/>
    <trip id="veh174" depart="612.94" departLane="best" from="42103968#1" to="-4596994#0" type="passenger"/>
    <trip id="veh175" depart="616.46" departLane="best" from="-4594805#2" to="105802525#1" type="passenger"/>
    <trip id="veh176" depart="619.98" departLane="best" from="-55816482#5" to="-4596990#2" type="passenger"/>
    <trip id="veh177" depart="623.50" departLane="best" from="-24700553#1" to="129104626#4" type="passenger"/>
    <trip id="veh178" depart="627.03" departLane="best" from="4603408#4" to="333607513#5" type="passenger"/>
    <trip id="veh179" depart="630.55" departLane="best" from="-4592581" to="24700552#1" type="passenger"/>
    <trip id="veh180" depart="634.07" departLane="best" from="-105802525#0" to="-4594805#7" type="passenger"/>
    <trip id="veh181" depart="637.59" departLane="best" from="120633877#0" to="25781746#1" type="passenger"/>
    <trip id="veh182" depart="641.12" departLane="best" from="374152384#1" to="172920331#9" type="passenger"/>
    <trip id="veh183" depart="644.64" departLane="best" from="147664165#1" to="-42732333#2" type="passenger"/>
    <trip id="veh184" depart="648.16" departLane="best" from="4402642" to="-374152381#6" type="passenger"/>
    <trip id="veh185" depart="651.68" departLane="best" from="-175299344" to="220647519#6" type="passenger"/>
    <trip id="veh186" depart="655.21" departLane="best" from="36954721#0" to="-4603408#4" type="passenger"/>
    <trip id="veh187" depart="658.73" departLane="best" from="4543574#5" to="42732331#2" type="passenger"/>
    <trip id="veh188" depart="662.25" departLane="best" from="374344536" to="-42732336#4" type="passenger"/>
    <trip id="veh189" depart="665.77" departLane="best" from="-374621841#2" to="-169711650#1" type="passenger"/>
    <trip id="veh190" depart="669.30" departLane="best" from="-42732336#10" to="172922877#2" type="passenger"/>
    <trip id="veh191" depart="672.82" departLane="best" from="4594805#6" to="-23075532#1" type="passenger"/>
    <trip id="veh192" depart="676.34" departLane="best" from="-610561277#2" to="36954721#4" type="passenger"/>
    <trip id="veh193" depart="679.87" departLane="best" from="182584478#0" to="-4396910#0" type="passenger"/>
    <trip id="veh194" depart="683.39" departLane="best" from="374152384#2" to="-119914238#6" type="passenger"/>
    <trip id="veh195" depart="686.91" departLane="best" from="-23735660#2" to="147659847#0" type="passenger"/>
    <trip id="veh196" depart="690.43" departLane="best" from="-374098767#3" to="53175869#1" type="passenger"/>
    <trip id="veh197" depart="693.96" departLane="best" from="23735660#2" to="-175298126#0" type="passenger"/>
    <trip id="veh198" depart="697.48" departLane="best" from="-42732336#14" to="4581770#6" type="passenger"/>
    <trip id="veh199" depart="701.00" departLane="best" from="172920331#10" to="436413565#7" type="passenger"/>
    <trip id="veh200" depart="704.52" departLane="best" from="374344535#4" to="610561277#2" type="passenger"/>
    <trip id="veh201" depart="708.05" departLane="best" from="317871682#0" to="53163720#8" type="passenger"/>
    <trip id="veh202" depart="711.57" departLane="best" from="4597054" to="333607513#12" type="passenger"/>
    <trip id="veh203" depart="715.09" departLane="best" from="42103968#1" to="188944334#3" type="passenger"/>
    <trip id="veh204" depart="718.61" departLane="best" from="4581770#1" to="24700552#1" type="passenger"/>
    <trip id="veh205" depart="722.14" departLane="best" from="172922877#4" to="-4543571#0" type="passenger"/>
    <trip id="veh206" depart="725.66" departLane="best" from="-42732336#14" to="374098767#3" type="passenger"/>
    <trip id="veh207" depart="729.18" departLane="best" from="431664599#0" to="23075531#1" type="passenger"/>
    <trip id="veh208" depart="732.70" departLane="best" from="36830368" to="-4581778#1" type="passenger"/>
    <trip id="veh209" depart="736.23" departLane="best" from="-175298126#6" to="-4594805#6" type="passenger"/>
    <trip id="veh210" depart="739.75" departLane="best" from="-4396816#2" to="-4597039#2" type="passenger"/>
    <trip id="veh211" depart="743.27" departLane="best" from="247340730#0" to="-333607513#3" type="passenger"/>
    <trip id="veh212" depart="746.80" departLane="best" from="-42690514#2" to="376720441#1" type="passenger"/>
    <trip id="veh213" depart="750.32" departLane="best" from="377644587#6" to="-185779390#1" type="passenger"/>
    <trip id="veh214" depart="753.84" departLane="best" from="-593921230#0" to="240526036#0" type="passenger"/>
    <trip id="veh215" depart="757.36" departLane="best" from="-6182064#0" to="-42103967#5" type="passenger"/>
    <trip id="veh216" depart="760.89" departLane="best" from="-85182068#0" to="4597055#1" type="passenger"/>
    <trip id="veh217" depart="764.41" departLane="best" from="31305656#0" to="377644580#0" type="passenger"/>
    <trip id="veh218" depart="767.93" departLane="best" from="4596986#4" to="42732333#6" type="passenger"/>
    <trip id="veh219" depart="771.45" departLane="best" from="-53163720#5" to="-119914238#7" type="passenger"/>
    <trip id="veh220" depart="774.98" departLane="best" from="-4597252" to="42732331#5" type="passenger"/>
    <trip id="veh221" depart="778.50" departLane="best" from="4596984" to="53163720#8" type="passenger"/>
    <trip id="veh222" depart="782.02" departLane="best" from="-645343614" to="42732329#1" type="passenger"/>
    <trip id="veh223" depart="785.54" departLane="best" from="25202591#0" to="332164871#0" type="passenger"/>
    <trip id="veh224" depart="789.07" departLane="best" from="-42091230" to="-42732334#1" type="passenger"/>
    <trip id="veh225" depart="792.59" departLane="best" from="129104626#5" to="-172920331#2" type="passenger"/>
    <trip id="veh226" depart="796.11" departLane="best" from="-4597032#6" to="374621842#0" type="passenger"/>
    <trip id="veh227" depart="799.63" departLane="best" from="-55816482#8" to="-374152381#0" type="passenger"/>
    <trip id="veh228" depart="803.16" departLane="best" from="172921855" to="-31586811#0" type="passenger"/>
    <trip id="veh229" depart="806.68" departLane="best" from="34956511#4" to="-172920331#10" type="passenger"/>
    <trip id="veh230" depart="810.20" departLane="best" from="-551121709#1" to="25217543#2" type="passenger"/>
    <trip id="veh231" depart="813.72" departLane="best" from="-147659855#1" to="374152381#6" type="passenger"/>
    <trip id="veh232" depart="817.25" departLane="best" from="-25278674#4" to="172920331#5" type="passenger"/>
    <trip id="veh233" depart="820.77" departLane="best" from="-172920331#1" to="-55816482#4" type="passenger"/>
    <trip id="veh234" depart="824.29" departLane="best" from="-378173217#1" to="-4597055#3" type="passenger"/>
    <trip id="veh235" depart="827.82" departLane="best" from="431664593" to="-55816482#4" type="passenger"/>
    <trip id="veh236" depart="831.34" departLane="best" from="42732336#10" to="4543571#1" type="passenger"/>
    <trip id="veh237" depart="834.86" departLane="best" from="-42732336#5" to="-23735661#2" type="passenger"/>
    <trip id="veh238" depart="838.38" departLane="best" from="-147659848#1" to="237716438" type="passenger"/>
    <trip id="veh239" depart="841.91" departLane="best" from="85182068#1" to="-5133252#0" type="passenger"/>
    <trip id="veh240" depart="845.43" departLane="best" from="374152381#8" to="42732336#9" type="passenger"/>
    <trip id="veh241" depart="848.95" departLane="best" from="374152382" to="42732331#5" type="passenger"/>
    <trip id="veh242" depart="852.47" departLane="best" from="53163726#0" to="-378173217#0" type="passenger"/>
    <trip id="veh243" depart="856.00" departLane="best" from="-147659848#1" to="-36830368" type="passenger"/>
    <trip id="veh244" depart="859.52" departLane="best" from="25781742#3" to="-42732333#7" type="passenger"/>
    <trip id="veh245" depart="863.04" departLane="best" from="376720441#0" to="42732333#7" type="passenger"/>
    <trip id="veh246" depart="866.56" departLane="best" from="-34956511#4" to="332164879#0" type="passenger"/>
    <trip id="veh247" depart="870.09" departLane="best" from="42732333#7" to="-27708234" type="passenger"/>
    <trip id="veh248" depart="873.61" departLane="best" from="4543574#6" to="551121709#0" type="passenger"/>
    <trip id="veh249" depart="877.13" departLane="best" from="-23735660#3" to="-172920331#0" type="passenger"/>
    <trip id="veh250" depart="880.65" departLane="best" from="-4594805#5" to="374621841#0" type="passenger"/>
    <trip id="veh252" depart="887.70" departLane="best" from="374621845#2" to="34956511#7" type="passenger"/>
    <trip id="veh253" depart="891.22" departLane="best" from="-23707866#0" to="42732336#12" type="passenger"/>
    <trip id="veh255" depart="898.27" departLane="best" from="-237716438" to="595154410" type="passenger"/>
    <trip id="veh256" depart="901.79" departLane="best" from="4383367#2" to="-5133251#4" type="passenger"/>
    <trip id="veh257" depart="905.31" departLane="best" from="119914238#9" to="-549316653#0" type="passenger"/>
    <trip id="veh258" depart="908.84" departLane="best" from="-23735660#1" to="53542202#2" type="passenger"/>
    <trip id="veh259" depart="912.36" departLane="best" from="36954721#4" to="45339885" type="passenger"/>
    <trip id="veh260" depart="915.88" departLane="best" from="377644587#8" to="147664165#0" type="passenger"/>
    <trip id="veh261" depart="919.40" departLane="best" from="42732329#3" to="551121709#1" type="passenger"/>
    <trip id="veh262" depart="922.93" departLane="best" from="-4383367#2" to="4396816#0" type="passenger"/>
    <trip id="veh263" depart="926.45" departLane="best" from="247340730#0" to="175298126#5" type="passenger"/>
    <trip id="veh264" depart="929.97" departLane="best" from="129104626#4" to="42690514#0" type="passenger"/>
    <trip id="veh265" depart="933.49" departLane="best" from="-4383367#0" to="4592574#0" type="passenger"/>
    <trip id="veh266" depart="937.02" departLane="best" from="4581770#1" to="-23899000" type="passenger"/>
    <trip id="veh267" depart="940.54" departLane="best" from="4597032#7" to="-4396910#0" type="passenger"/>
    <trip id="veh268" depart="944.06" departLane="best" from="172921853#2" to="333607513#1" type="passenger"/>
    <trip id="veh269" depart="947.58" departLane="best" from="-53163720#3" to="-172920331#2" type="passenger"/>
    <trip id="veh270" depart="951.11" departLane="best" from="4594805#7" to="-374344532#0" type="passenger"/>
    <trip id="veh271" depart="954.63" departLane="best" from="-378173217#2" to="436413565#10" type="passenger"/>
    <trip id="veh272" depart="958.15" departLane="best" from="-4597034#2" to="4596990#5" type="passenger"/>
    <trip id="veh273" depart="961.67" departLane="best" from="377644580#0" to="-4581778#2" type="passenger"/>
    <trip id="veh274" depart="965.20" departLane="best" from="-119914238#7" to="53163720#4" type="passenger"/>
    <trip id="veh275" depart="968.72" departLane="best" from="-176112922#0" to="42103709#0" type="passenger"/>
    <trip id="veh276" depart="972.24" departLane="best" from="180021208#0" to="42732331#6" type="passenger"/>
    <trip id="veh277" depart="975.77" departLane="best" from="374621845#2" to="374152381#9" type="passenger"/>
    <trip id="veh278" depart="979.29" departLane="best" from="180021208#2" to="431664603#1" type="passenger"/>