<?xml version="1.0" encoding="UTF-8"?>

<!-- generated on Tue Dec 18 12:28:17 2018 by Eclipse SUMO polyconvert Version 1.0.1
<configuration xmlns:xsi="http://www.w3.org/2001/XMLSchema-instance" xsi:noNamespaceSchemaLocation="http://sumo.dlr.de/xsd/polyconvertConfiguration.xsd">

    <input>
        <net-file value="../mappe/testMap2/osm.net.xml"/>
        <osm-files value="../mappe/testMap2/osm.osm.xml"/>
        <shapefile.add-param value="true"/>
    </input>

    <output>
        <output-file value="../mappe/testMap2/osm-25.poly.xml"/>
    </output>

    <pruning>
        <prune.in-net value="true"/>
        <prune.explicit value="fountain"/>
    </pruning>

    <processing>
        <poi-layer-offset value="5"/>
    </processing>

</configuration>
-->

<additional xmlns:xsi="http://www.w3.org/2001/XMLSchema-instance" xsi:noNamespaceSchemaLocation="http://sumo.dlr.de/xsd/additional_file.xsd">
    <location netOffset="-389627.38,-5818992.05" convBoundary="-639.13,-3611.20,3059.39,4267.14" origBoundary="13.365448,52.477280,13.418697,52.548335" projParameter="+proj=utm +zone=33 +ellps=WGS84 +datum=WGS84 +units=m +no_defs"/>

    <poly id="131487805" type="building" color="255,230,230" fill="1" layer="-1.00" shape="439.029453,576.326774 403.539287,573.050665 404.822346,558.233126 404.962558,556.616460 405.102771,554.999793 405.242985,553.383127 440.856969,556.422793 439.126876,575.222944 439.029453,576.326774"/>
    <poly id="137118022" type="amenity" color="237,199,199" fill="1" layer="-1.00" shape="719.314057,289.437468 702.488538,285.396424 677.981092,277.866434 678.169969,277.205671 647.663496,267.974096 640.062348,293.248425 641.683256,293.779630 640.052008,298.545438 638.628633,298.043193 638.461366,298.759112 639.048918,298.923993 632.041194,323.105661 634.243107,323.813017 631.480121,334.123518 628.603448,333.297746 622.414725,354.334203 625.427846,355.190296 622.265799,365.565382 618.905373,364.661434 613.676370,382.471626 612.637263,383.362869 662.502254,398.225204 682.778086,404.169568 696.204495,408.019570 701.010132,392.210809 699.595070,391.775127 701.195835,386.253339 703.041506,380.147428 704.523182,380.525981 709.276585,364.807422 711.046018,358.024433 651.401981,340.921397 654.270962,331.098153 714.983055,348.900619 731.253004,292.942530 719.314057,289.437468"/>
    <poly id="138554284" type="commercial" color="209,209,204" fill="1" layer="-3.00" shape="913.571941,223.312292 897.965900,221.891712 897.917753,222.471427 894.763694,222.297102 894.021900,231.939114 893.586618,231.904331 892.246987,249.426966 892.668696,249.462053 891.916325,259.237834 891.312945,267.174220 889.904762,285.577476 888.911432,298.240710 902.490464,299.194676 902.505428,298.649086 905.157548,298.845757 905.115193,299.380832 906.332309,299.464911 908.672537,299.679682 910.563173,299.826606 910.618852,299.280106 912.999545,299.482847 912.963974,300.017770 925.301469,301.010668 963.052311,303.917416 965.813492,304.133940 965.758055,304.691562 1004.699299,307.705575 1004.735625,307.204019 1007.258807,307.403625 1008.508297,291.908280 1010.443128,269.097890 1001.645890,268.248289 997.563549,267.849816 965.943750,264.672331 965.931093,265.017571 959.069670,264.514281 942.389075,263.306735 939.886223,263.106708 935.329618,262.752264 937.135261,238.731805 912.663781,236.752551 913.571941,223.312292"/>
    <poly id="138554286" type="commercial" color="209,209,204" fill="1" layer="-3.00" shape="906.615051,596.166865 943.392116,599.039507 944.207586,599.076927 944.772251,599.131079 944.746028,599.476623 947.166789,599.656225 949.914234,599.873041 949.947243,599.527345 958.135049,600.167893 958.091698,600.658479 975.007386,601.805150 975.040893,601.481699 976.352678,601.552551 980.113604,601.858026 983.799644,602.154049 1013.533200,604.561365 1044.894678,606.910271 1047.728584,605.222381 1048.599667,593.151679 1049.414487,581.905681 1049.880940,575.430097 1050.302214,569.667693 1050.484924,566.903955 1050.869542,561.019964 1051.405843,552.806907 1053.184800,531.224050 1016.737569,528.243056 1010.181362,527.710639 1005.774286,527.352799 1000.945525,526.959868 985.330139,525.683913 968.843984,524.327307 964.178561,523.953019 962.171669,523.764163 960.396473,523.614644 958.294835,523.439033 956.506067,523.289818 956.345486,525.218492 956.076775,528.384753 955.879629,530.803861 955.292740,537.960935 954.130223,547.612338 953.741368,550.870304 953.152311,556.714362 946.768250,556.289462 946.385896,561.661541 908.975286,558.702875 892.047919,557.345262 869.809041,555.561187 868.241503,575.025156 878.939095,575.876531 882.462068,576.164996 886.910322,576.544058 886.756791,580.609092 885.641394,594.487981 906.615051,596.166865"/>
    <poly id="138554287" type="commercial" color="209,209,204" fill="1" layer="-3.00" shape="881.234184,395.490116 904.973799,397.563435 923.931247,399.209583 935.093355,400.173120 956.057473,401.997116 961.580719,402.474645 969.980442,403.166129 987.541843,404.621147 997.710010,405.462361 1020.127410,407.309819 1039.429834,408.904200 1062.812969,410.830447 1063.991338,395.792940 1065.693573,374.111659 1066.967055,357.859117 1068.161597,342.632082 1068.784859,334.661900 1061.397830,334.025539 1046.202066,332.717751 1017.912226,330.277951 1003.328628,329.023395 999.458181,328.686957 993.006968,328.307997 981.854479,327.477640 974.339988,326.911022 967.281123,326.378750 956.815461,325.599877 949.049398,325.016660 946.934600,324.863601 936.400826,324.075166 932.306940,323.766027 923.614299,323.036636 898.671790,320.923331 887.095073,319.946882 884.090605,358.660439 881.234184,395.490116"/>
    <poly id="143296211" type="commercial" color="209,209,204" fill="1" layer="-3.00" shape="1341.531968,433.506255 1345.640941,379.289974 1383.349363,382.167490 1403.653500,383.629741 1404.195197,374.715586 1404.497290,371.815681 1402.626813,371.656992 1403.365572,361.225095 1403.849241,351.533297 1437.526319,354.155956 1436.892313,363.806581 1434.814555,386.686682 1433.524156,399.790343 1432.809056,410.677941 1432.554374,414.489254 1432.339773,427.123887 1432.263545,436.517303 1343.609193,435.329465 1342.337939,434.946037 1341.531968,433.506255"/>
    <poly id="146594546" type="building" color="255,230,230" fill="1" layer="-1.00" shape="1336.271054,577.781926 1343.275712,578.338177 1342.654637,586.119094 1347.401383,586.491929 1347.120239,590.025648 1350.989704,590.328992 1350.378971,597.965018 1353.622704,598.215525 1352.359331,614.044892 1352.344174,614.278910 1351.589284,614.217818 1350.181590,631.797439 1350.112939,632.678050 1345.461231,632.303099 1331.302545,631.182803 1331.334343,630.781500 1330.858142,630.736463 1331.489046,622.788409 1332.652038,622.884924 1333.542577,612.572031 1334.398855,601.024733 1333.222288,600.928520 1333.832746,593.281369 1334.594425,593.342307 1334.903296,589.529778 1334.481621,589.494654 1335.128439,581.345950 1335.556900,581.380923 1335.662648,580.032125 1335.822632,578.070098 1336.244060,578.094100 1336.271054,577.781926"/>
    <poly id="147082781" type="landuse" color="194,194,130" fill="1" layer="-3.00" shape="1227.794951,278.237968 1229.606702,248.943028 1235.650352,249.309127 1239.386723,250.939546 1242.271120,253.334500 1245.306246,256.705329 1247.878962,261.566438 1248.625044,267.325065 1249.746936,275.935124 1250.034189,284.563776 1235.071286,283.350361 1233.654493,281.312183 1231.017117,279.034136 1227.794951,278.237968"/>
    <poly id="147082781#1" type="tourism" color="207,245,201" fill="1" layer="-2.00" shape="1227.794951,278.237968 1229.606702,248.943028 1235.650352,249.309127 1239.386723,250.939546 1242.271120,253.334500 1245.306246,256.705329 1247.878962,261.566438 1248.625044,267.325065 1249.746936,275.935124 1250.034189,284.563776 1235.071286,283.350361 1233.654493,281.312183 1231.017117,279.034136 1227.794951,278.237968"/>
    <poly id="147082782" type="landuse" color="194,194,130" fill="1" layer="-3.00" shape="1226.093880,292.997741 1223.455518,321.754722 1228.491549,322.911068 1234.310669,321.735422 1240.018461,317.390886 1245.348590,307.368543 1248.043336,297.594082 1249.595790,289.569853 1234.005801,288.548452 1232.690450,290.758775 1229.998204,292.721583 1226.093880,292.997741"/>
    <poly id="147082782#1" type="tourism" color="207,245,201" fill="1" layer="-2.00" shape="1226.093880,292.997741 1223.455518,321.754722 1228.491549,322.911068 1234.310669,321.735422 1240.018461,317.390886 1245.348590,307.368543 1248.043336,297.594082 1249.595790,289.569853 1234.005801,288.548452 1232.690450,290.758775 1229.998204,292.721583 1226.093880,292.997741"/>
    <poly id="147082784" type="amenity" color="237,199,199" fill="1" layer="-1.00" shape="1198.013953,512.904898 1205.065232,513.415405 1210.799016,435.917080 1203.754412,435.406412 1198.013953,512.904898"/>
    <poly id="157099365" type="building" color="255,230,230" fill="1" layer="-1.00" shape="1312.820634,551.141410 1277.209262,548.484838 1276.130340,561.917680 1275.642337,568.048754 1294.276332,569.536597 1292.877743,589.041119 1295.298738,589.232015 1311.749630,590.545983 1312.286654,590.578537 1315.535886,554.486015 1312.820634,551.141410"/>
    <poly id="157099366" type="building" color="255,230,230" fill="1" layer="-1.00" shape="1291.373904,626.986495 1292.054652,627.071484 1292.023894,626.604808 1293.262514,626.744140 1293.386830,627.753987 1308.878902,629.000272 1312.223804,591.414509 1311.222412,591.258763 1311.244352,591.024594 1311.686383,591.059263 1311.749630,590.545983 1295.298738,589.232015 1294.240782,602.998215 1297.398042,603.328504 1296.682850,613.281416 1292.966981,612.863420 1292.794137,614.247097 1292.481275,614.220681 1291.373904,626.986495"/>
    <poly id="157099367" type="building" color="255,230,230" fill="1" layer="-1.00" shape="1257.506562,560.585465 1276.130340,561.917680 1277.209262,548.484838 1244.542073,546.041122 1244.456151,546.755206 1243.459179,559.596467 1257.506562,560.585465"/>
    <poly id="157099368" type="building" color="255,230,230" fill="1" layer="-1.00" shape="1237.765675,622.461000 1240.121355,593.821584 1240.136755,593.598688 1233.063753,593.021852 1232.566794,599.052984 1233.784324,599.159387 1232.951835,609.326353 1217.629304,608.076527 1216.535509,621.442955 1236.795451,623.094638 1236.815901,622.793736 1237.734132,622.873426 1237.765675,622.461000"/>
    <poly id="157099369" type="building" color="255,230,230" fill="1" layer="-1.00" shape="1270.967800,625.170929 1271.743424,617.019344 1273.242454,597.456936 1254.627921,595.924232 1241.024994,594.769557 1241.039592,593.901275 1240.121355,593.821584 1237.765675,622.461000 1239.512692,622.566736 1239.468723,623.335523 1240.359318,623.393574 1240.408455,623.770820 1244.728451,624.186445 1244.741067,623.229186 1263.946062,624.759823 1263.948747,625.794635 1267.968209,626.127954 1268.019862,625.703953 1269.257244,625.787668 1269.288142,625.041427 1270.967800,625.170929"/>
    <poly id="157099372" type="building" color="255,230,230" fill="1" layer="-1.00" shape="1242.692872,569.383615 1243.459179,559.596467 1244.456151,546.755206 1217.942268,544.742094 1217.973159,543.995853 1206.318855,543.165060 1204.820031,563.639958 1206.023504,563.724413 1216.316987,564.418615 1216.506605,563.179220 1227.348951,563.827831 1235.294570,564.262813 1234.490754,575.107925 1242.152517,575.905328 1242.482017,571.803012 1256.429568,572.883250 1256.644146,570.630686 1242.692872,569.383615"/>
    <poly id="157099374" type="building" color="255,230,230" fill="1" layer="-1.00" shape="1204.618197,581.693507 1217.391481,582.477102 1225.705116,583.282208 1227.348951,563.827831 1216.506605,563.179220 1216.316987,564.418615 1206.023504,563.724413 1204.618197,581.693507"/>
    <poly id="157099375" type="building" color="255,230,230" fill="1" layer="-1.00" shape="1200.676732,620.194006 1216.535509,621.442955 1217.629304,608.076527 1215.487251,607.912836 1216.602958,590.350795 1216.697706,587.900601 1214.071414,587.636425 1214.100353,585.888739 1217.119695,586.121901 1217.391481,582.477102 1204.618197,581.693507 1203.808768,581.622525 1203.726727,582.815012 1203.407821,582.822120 1200.676732,620.194006"/>
    <poly id="157099377" type="building" color="255,230,230" fill="1" layer="-1.00" shape="1253.219496,615.284332 1266.165285,616.197741 1267.163067,606.438824 1253.984917,605.152249 1253.219496,615.284332"/>
    <poly id="15976892" type="amenity" color="237,199,199" fill="1" layer="-1.00" shape="1442.132751,678.824571 1442.085536,679.448769 1434.551552,678.893026 1433.923603,687.286102 1425.294754,686.643449 1424.216152,701.022090 1421.904276,700.850961 1420.506554,719.498587 1422.818422,719.669716 1421.739098,734.014992 1430.150249,734.640223 1427.395960,771.344793 1434.746362,771.893474 1434.474186,775.527138 1444.387960,776.263629 1452.561313,776.883057 1452.817847,773.461168 1460.515018,774.035560 1463.306660,736.862826 1472.296010,737.542038 1473.353533,723.430943 1476.155156,723.646846 1477.559872,704.999087 1474.751700,704.794456 1475.825147,690.482711 1466.931197,689.823624 1467.564256,681.352547 1460.145625,680.794202 1460.192842,680.170004 1442.132751,678.824571"/>
    <poly id="15976892#1" type="building" color="255,230,230" fill="1" layer="-1.00" shape="1442.132751,678.824571 1442.085536,679.448769 1434.551552,678.893026 1433.923603,687.286102 1425.294754,686.643449 1424.216152,701.022090 1421.904276,700.850961 1420.506554,719.498587 1422.818422,719.669716 1421.739098,734.014992 1430.150249,734.640223 1427.395960,771.344793 1434.746362,771.893474 1434.474186,775.527138 1444.387960,776.263629 1452.561313,776.883057 1452.817847,773.461168 1460.515018,774.035560 1463.306660,736.862826 1472.296010,737.542038 1473.353533,723.430943 1476.155156,723.646846 1477.559872,704.999087 1474.751700,704.794456 1475.825147,690.482711 1466.931197,689.823624 1467.564256,681.352547 1460.145625,680.794202 1460.192842,680.170004 1442.132751,678.824571"/>
    <poly id="166709624" type="building" color="255,230,230" fill="1" layer="-1.00" shape="420.211284,422.385512 421.729779,418.657028 427.573721,421.018469 425.598417,425.869975 425.469946,426.195562 424.682127,425.879413 420.249480,424.087194 420.002706,423.981456 419.626009,423.834123 419.908843,423.126729 420.211284,422.385512"/>
    <poly id="166709624#1" type="tourism" color="207,245,201" fill="1" layer="-2.00" shape="420.211284,422.385512 421.729779,418.657028 427.573721,421.018469 425.598417,425.869975 425.469946,426.195562 424.682127,425.879413 420.249480,424.087194 420.002706,423.981456 419.626009,423.834123 419.908843,423.126729 420.211284,422.385512"/>
    <poly id="166709626" type="building" color="255,230,230" fill="1" layer="-1.00" shape="420.211284,422.385512 419.908843,423.126729 417.784735,423.163279 417.763266,422.206778 420.206291,422.163069 420.211284,422.385512"/>
    <poly id="166709626#1" type="man_made" color="255,230,230" fill="1" layer="-1.00" shape="420.211284,422.385512 419.908843,423.126729 417.784735,423.163279 417.763266,422.206778 420.206291,422.163069 420.211284,422.385512"/>
    <poly id="166709627" type="building" color="255,230,230" fill="1" layer="-1.00" shape="425.598417,425.869975 426.840160,425.842104 426.862877,426.854216 424.677702,426.892134 424.682127,425.879413 425.469946,426.195562 425.598417,425.869975"/>
    <poly id="166709627#1" type="man_made" color="255,230,230" fill="1" layer="-1.00" shape="425.598417,425.869975 426.840160,425.842104 426.862877,426.854216 424.677702,426.892134 424.682127,425.879413 425.469946,426.195562 425.598417,425.869975"/>
    <poly id="171424955" type="landuse" color="194,194,130" fill="1" layer="-3.00" shape="1033.223365,757.672483 870.067411,743.546431 868.705369,765.821118 1030.996746,779.565802 1033.223365,757.672483"/>
    <poly id="171494871" type="farm" color="242,242,204" fill="1" layer="-3.00" shape="1187.329109,792.502810 1291.282673,800.602077 1292.677591,782.766774 1188.724422,773.788371 1187.329109,792.502810"/>
    <poly id="171494872" type="farm" color="242,242,204" fill="1" layer="-3.00" shape="834.124907,749.413199 824.376307,744.234296 717.874171,735.511997 654.664943,730.273123 645.546249,729.587175 515.639778,718.889871 514.097478,737.596760 561.604758,741.605690 577.087960,742.760834 830.660509,762.665856 832.687168,762.831957 832.872519,761.103021 834.124907,749.413199"/>
    <poly id="172234733" type="historic" color="128,255,128" fill="1" layer="-1.00" shape="378.193483,516.356517 286.801411,508.739586 264.138451,360.960901 264.656548,359.847611 440.554804,411.368732 406.970591,523.288385 389.171601,518.502474 378.193483,516.356517"/>
    <poly id="172234733#1" type="tourism" color="207,245,201" fill="1" layer="-2.00" shape="378.193483,516.356517 286.801411,508.739586 264.138451,360.960901 264.656548,359.847611 440.554804,411.368732 406.970591,523.288385 389.171601,518.502474 378.193483,516.356517"/>
    <poly id="188033973" type="commercial" color="209,209,204" fill="1" layer="-3.00" shape="772.969817,506.472861 854.949247,514.598583 849.145355,592.043466 758.499254,583.666711 772.969817,506.472861"/>
    <poly id="188036510" type="commercial" color="209,209,204" fill="1" layer="-3.00" shape="1152.123854,616.191048 1153.133216,603.916992 1157.696764,604.293728 1158.395922,595.765483 1154.044574,593.336526 1155.035142,578.392253 1155.584735,571.681150 1156.939422,556.016590 1158.253746,540.063612 1167.370364,540.950867 1172.600665,541.390647 1176.015073,541.681744 1185.020143,542.437986 1178.916826,618.253208 1169.471598,617.540177 1164.708655,616.745026 1152.123854,616.191048"/>
    <poly id="188036512" type="residential" color="235,235,227" fill="1" layer="-3.00" shape="1200.676732,620.194006 1216.535509,621.442955 1236.795451,623.094638 1236.815901,622.793736 1237.734132,622.873426 1237.765675,622.461000 1239.512692,622.566736 1239.468723,623.335523 1240.359318,623.393574 1240.408455,623.770820 1244.728451,624.186445 1244.741067,623.229186 1263.946062,624.759823 1263.948747,625.794635 1267.968209,626.127954 1268.019862,625.703953 1269.257244,625.787668 1269.288142,625.041427 1270.967800,625.170929 1291.373904,626.986495 1292.054652,627.071484 1292.023894,626.604808 1293.262514,626.744140 1293.386830,627.753987 1308.878902,629.000272 1312.223804,591.414509 1311.222412,591.258763 1311.244352,591.024594 1311.686383,591.059263 1311.749630,590.545983 1312.286654,590.578537 1315.535886,554.486015 1312.820634,551.141410 1277.209262,548.484838 1244.542073,546.041122 1244.456151,546.755206 1217.942268,544.742094 1217.973159,543.995853 1206.318855,543.165060 1204.820031,563.639958 1206.023504,563.724413 1204.618197,581.693507 1203.808768,581.622525 1203.726727,582.815012 1203.407821,582.822120 1200.676732,620.194006"/>
    <poly id="188036515" type="residential" color="235,235,227" fill="1" layer="-3.00" shape="1158.395922,595.765483 1154.044574,593.336526 1155.035142,578.392253 1155.584735,571.681150 1156.939422,556.016590 1158.253746,540.063612 1148.657599,539.287215 1139.020488,538.500623 1122.364556,537.136161 1101.369655,535.423440 1075.763616,533.335203 1074.680275,546.545654 1074.049358,554.171052 1072.544243,571.296725 1072.079254,576.926570 1071.626596,582.500502 1071.273574,586.759146 1070.847150,591.987535 1070.234202,600.113278 1069.605622,607.538328 1071.515649,609.776878 1088.075619,611.109917 1095.106418,611.620719 1112.829869,613.072543 1139.197150,615.221876 1139.543939,615.247526 1139.592109,614.667813 1145.991871,615.192760 1151.922213,615.672544 1151.878843,616.163128 1152.123854,616.191048 1153.133216,603.916992 1157.696764,604.293728 1158.395922,595.765483"/>
    <poly id="188036516" type="commercial" color="209,209,204" fill="1" layer="-3.00" shape="1029.952174,877.212172 1036.422337,801.232662 1024.472621,800.219745 1015.277510,799.445800 1003.022461,798.439752 994.778727,797.711368 990.895077,797.375245 986.630724,797.014243 974.715157,796.011811 968.634993,795.502212 962.765410,794.999044 952.624930,794.146185 946.939034,793.661188 930.031353,792.236266 909.015596,790.458104 896.650939,789.410259 894.100360,789.189076 877.491926,787.791029 864.385950,786.681943 860.483168,786.401988 841.690694,785.086277 838.677019,828.206685 838.106460,836.387166 835.572697,861.503379 864.888251,863.496239 876.169214,864.356798 881.221311,864.733475 888.741037,865.266422 919.237203,867.845237 934.260750,869.111913 940.714989,869.657620 946.033422,870.106306 951.508402,870.573756 956.813263,871.022756 962.165616,871.470702 976.822009,872.712326 981.521521,873.108109 985.969497,873.487258 987.799093,873.646695 1006.658442,875.239651 1008.807670,875.425342 1029.952174,877.212172"/>
    <poly id="188036518" type="residential" color="235,235,227" fill="1" layer="-3.00" shape="1791.094540,298.502044 1750.202234,328.095555 1745.642142,332.781244 1743.285076,332.722235 1720.642621,321.640547 1675.902275,413.679179 1642.820871,480.377842 1598.906399,459.976638 1587.025823,457.825772 1491.368984,440.277395 1432.074541,436.566017 1432.326910,426.545537 1432.541512,413.910904 1432.796441,410.110712 1434.801694,386.108331 1435.546055,377.757183 1436.879451,363.228231 1437.526319,354.155956 1458.588058,355.490314 1465.227062,358.213639 1494.070483,360.231980 1500.484601,358.030813 1539.979568,343.232552 1545.378893,342.411561 1588.063619,352.012464 1599.464415,354.863906 1608.520218,356.977379 1612.684511,345.479117 1617.993661,336.926516 1623.583543,330.927040 1665.040276,300.796922 1668.255685,301.905098 1675.129889,297.791134 1674.652047,294.919686 1676.002138,293.042547 1750.671390,241.479023 1791.094540,298.502044"/>
    <poly id="188036527" type="residential" color="235,235,227" fill="1" layer="-3.00" shape="1359.467494,282.472289 1374.158682,283.681001 1396.386930,285.556657 1397.285480,275.288121 1398.326599,259.830938 1378.811460,258.762860 1361.750547,258.152116 1359.467494,282.472289"/>
    <poly id="188228152" type="commercial" color="209,209,204" fill="1" layer="-3.00" shape="1341.860975,554.122539 1341.104882,554.617857 1340.520064,553.963216 1337.508074,556.500596 1338.100173,557.177330 1337.294503,557.885178 1335.850036,575.031642 1335.706640,577.738851 1336.271054,577.781926 1336.244060,578.094100 1335.822632,578.070098 1335.662648,580.032125 1335.556900,581.380923 1335.128439,581.345950 1334.481621,589.494654 1334.903296,589.529778 1334.594425,593.342307 1333.832746,593.281369 1333.222288,600.928520 1334.398855,601.024733 1333.542577,612.572031 1332.652038,622.884924 1331.489046,622.788409 1330.858142,630.736463 1331.334343,630.781500 1331.302545,631.182803 1345.461231,632.303099 1350.112939,632.678050 1350.181590,631.797439 1350.310756,631.805691 1350.368807,631.058847 1365.568590,632.289561 1380.692489,633.466371 1380.654892,633.912313 1388.346251,634.520112 1388.288194,635.266955 1399.761261,636.202354 1411.253690,637.092838 1411.312740,636.390483 1419.174213,637.016801 1420.682125,618.133046 1422.446476,596.127851 1425.935214,596.406339 1426.605118,588.067969 1428.144396,568.760672 1428.817622,568.812464 1429.444386,560.975798 1392.687064,558.065688 1386.688834,557.587122 1386.656041,557.943936 1386.411276,557.927127 1386.432478,557.659592 1375.095672,556.754569 1341.860975,554.122539"/>
    <poly id="188228155" type="commercial" color="209,209,204" fill="1" layer="-3.00" shape="1396.386930,285.556657 1374.158682,283.681001 1359.467494,282.472289 1358.833458,289.674849 1356.153970,289.467414 1355.681083,295.064010 1354.959257,304.727732 1357.332888,304.919718 1356.793136,310.562312 1355.642627,324.452948 1354.852108,334.385263 1373.138164,335.758774 1392.573132,338.119409 1413.211920,339.663282 1438.399891,341.540054 1446.323395,342.187308 1454.090333,342.815800 1456.345777,315.402818 1456.199477,303.021023 1441.383159,301.981765 1441.373851,293.625123 1441.367109,277.445704 1441.241365,272.096111 1439.481182,262.854810 1398.326599,259.830938 1397.285480,275.288121 1396.386930,285.556657"/>
    <poly id="194983927" type="building" color="255,230,230" fill="1" layer="-1.00" shape="491.746853,373.999493 487.910841,387.305253 496.452134,389.762059 500.294702,376.445031 491.746853,373.999493"/>
    <poly id="195071814" type="building" color="255,230,230" fill="1" layer="-1.00" shape="683.238500,787.908903 680.995058,812.618123 696.044445,814.117180 698.549089,789.246333 683.238500,787.908903"/>
    <poly id="195071820" type="building" color="255,230,230" fill="1" layer="-1.00" shape="819.821998,708.148925 806.205418,706.984641 805.627942,713.640788 799.635858,713.129423 799.113554,719.216824 831.175734,721.960391 832.791645,703.151850 831.893774,703.071781 820.344827,702.083771 819.821998,708.148925"/>
    <poly id="195071821" type="farm" color="242,242,204" fill="1" layer="-3.00" shape="530.649096,830.587036 562.108614,837.960337 603.921449,841.451907 605.893920,820.420852 614.229141,821.291192 615.102134,811.779698 620.859948,812.140295 623.686452,780.140455 566.176001,775.030987 563.508611,807.450159 561.972463,826.134636 531.152889,823.387237 530.649096,830.587036"/>
    <poly id="195071828" type="building" color="255,230,230" fill="1" layer="-1.00" shape="557.762449,618.063026 552.738004,634.678059 568.809916,639.670175 571.189842,637.725115 572.747084,622.701191 557.762449,618.063026"/>
    <poly id="195071831" type="building" color="255,230,230" fill="1" layer="-1.00" shape="560.359180,609.436479 564.310117,597.018411 575.949586,598.092820 575.319864,604.828068 580.599111,605.633334 581.406308,598.638172 586.461453,599.136891 584.668561,614.856008 575.969075,614.105147 560.359180,609.436479"/>
    <poly id="195088660" type="tourism" color="207,245,201" fill="1" layer="-2.00" shape="627.265743,650.544951 656.837661,653.009360 658.868401,628.805645 651.618189,628.200233 629.296339,626.341221 627.265743,650.544951"/>
    <poly id="195088661" type="tourism" color="207,245,201" fill="1" layer="-2.00" shape="730.267935,679.017451 801.609625,684.832075 805.562817,636.983620 733.024065,632.008030 730.267935,679.017451"/>
    <poly id="195257482" type="amenity" color="237,199,199" fill="1" layer="-1.00" shape="361.171673,576.405599 361.945388,569.444525 363.188110,554.650132 363.328310,553.033465 363.461724,551.416949 363.347913,551.185823 360.629542,551.057703 360.622962,549.555608 354.349626,549.229140 353.653803,556.333125 340.657396,555.000399 341.036290,547.992551 307.725304,545.636288 299.815195,545.279901 300.667713,552.705191 307.004617,553.141439 306.288757,560.257012 301.400305,560.533774 310.135995,644.463074 312.856566,644.691265 312.926577,647.505007 317.545708,647.935351 340.800446,649.916649 354.805096,651.115444 356.311235,629.916690 345.100491,628.888811 345.182612,627.406980 337.879561,626.869984 337.917827,628.271217 327.755994,627.397859 324.787777,598.621486 334.345034,599.475039 333.810836,595.035951 334.642674,594.894859 334.009392,589.067031 332.054238,589.066443 332.098003,590.712362 328.097949,590.946885 326.316215,573.282708 361.171673,576.405599"/>
    <poly id="195257482#1" type="building" color="255,230,230" fill="1" layer="-1.00" shape="361.171673,576.405599 361.945388,569.444525 363.188110,554.650132 363.328310,553.033465 363.461724,551.416949 363.347913,551.185823 360.629542,551.057703 360.622962,549.555608 354.349626,549.229140 353.653803,556.333125 340.657396,555.000399 341.036290,547.992551 307.725304,545.636288 299.815195,545.279901 300.667713,552.705191 307.004617,553.141439 306.288757,560.257012 301.400305,560.533774 310.135995,644.463074 312.856566,644.691265 312.926577,647.505007 317.545708,647.935351 340.800446,649.916649 354.805096,651.115444 356.311235,629.916690 345.100491,628.888811 345.182612,627.406980 337.879561,626.869984 337.917827,628.271217 327.755994,627.397859 324.787777,598.621486 334.345034,599.475039 333.810836,595.035951 334.642674,594.894859 334.009392,589.067031 332.054238,589.066443 332.098003,590.712362 328.097949,590.946885 326.316215,573.282708 361.171673,576.405599"/>
    <poly id="195257586" type="farm" color="242,242,204" fill="1" layer="-3.00" shape="327.755994,627.397859 324.787777,598.621486 334.345034,599.475039 333.810836,595.035951 334.642674,594.894859 334.009392,589.067031 332.054238,589.066443 332.098003,590.712362 328.097949,590.946885 326.316215,573.282708 361.171673,576.405599 356.311235,629.916690 345.100491,628.888811 345.182612,627.406980 337.879561,626.869984 337.917827,628.271217 327.755994,627.397859"/>
    <poly id="198210391" type="leisure" color="207,245,201" fill="1" layer="-2.00" shape="477.860336,283.375391 465.083094,282.460247 399.524520,277.789032 390.929389,376.061646 445.606708,392.048936 477.860336,283.375391"/>
    <poly id="198210391#1" type="sport" color="79,230,125" fill="1" layer="-2.00" shape="477.860336,283.375391 465.083094,282.460247 399.524520,277.789032 390.929389,376.061646 445.606708,392.048936 477.860336,283.375391"/>
    <poly id="205728153" type="landuse" color="194,194,130" fill="1" layer="-3.00" shape="912.142982,519.395909 911.955948,521.659006 908.975286,558.702875 946.385896,561.661541 946.768250,556.289462 953.152311,556.714362 953.741368,550.870304 954.130223,547.612338 955.292740,537.960935 955.879629,530.803861 956.076775,528.384753 956.345486,525.218492 956.506067,523.289818 912.142982,519.395909"/>
    <poly id="217114826" type="building" color="255,230,230" fill="1" layer="-1.00" shape="951.052388,703.090168 953.928693,703.304105 954.717502,703.364378 983.541594,705.502489 985.416344,680.323212 967.090945,678.963193 967.153734,678.127215 964.012299,677.896936 963.960348,678.610268 952.937811,677.788229 951.052388,703.090168"/>
    <poly id="217115407" type="building" color="255,230,230" fill="1" layer="-1.00" shape="420.006645,414.478302 417.536474,414.522620 417.552157,415.523762 420.022328,415.479444 420.006645,414.478302"/>
    <poly id="217115407#1" type="man_made" color="255,230,230" fill="1" layer="-1.00" shape="420.006645,414.478302 417.536474,414.522620 417.552157,415.523762 420.022328,415.479444 420.006645,414.478302"/>