<?xml version="1.0" encoding="UTF-8"?>
<!-- generated on 2018-12-18 12:28:18.222943 by $Id: randomTrips.py 23999 2017-04-21 09:04:47Z behrisch $
  options: -n ../mappe/testMap2/osm.net.xml -d 25 -o ../mappe/testMap2/osm-25.trips.xml
-->
<routes xmlns:xsi="http://www.w3.org/2001/XMLSchema-instance" xsi:noNamespaceSchemaLocation="http://sumo.dlr.de/xsd/routes_file.xsd">
	<vType id="car" accel="0.8" decel="4.5" sigma="0.5" length="4" maxSpeed="50"/>

	<trip id="0" depart="0.00" departPos="13" from="4588217#2" to="4588217#2" type="car"/>
	<trip id="1" depart="0.00" departPos="11" from="4588217#3" to="4588217#3" type="car"/>
	<trip id="2" depart="0.00" departPos="36" from="4588217#3" to="4588217#3" type="car"/>
	<trip id="3" depart="0.00" departPos="61" from="4588217#3" to="4588217#3" type="car"/>
	<trip id="4" depart="0.00" departPos="12" from="-4588217#1" to="-4588217#1" type="car"/>
	<trip id="5" depart="0.00" departPos="5" from="194069450#0" to="194069450#0" type="car"/>
	<trip id="6" depart="0.00" departPos="30" from="194069450#0" to="194069450#0" type="car"/>
	<trip id="7" depart="0.00" departPos="27" from="66071373#1" to="66071373#1" type="car"/>
	<trip id="8" depart="0.00" departPos="52" from="66071373#1" to="66071373#1" type="car"/>
	<trip id="9" depart="0.00" departPos="25" from="-243854725#3" to="-243854725#3" type="car"/>
	<trip id="10" depart="0.00" departPos="50" from="-243854725#3" to="-243854725#3" type="car"/>
	<trip id="11" depart="0.00" departPos="24" from="-24242882#0" to="-24242882#0" type="car"/>
	<trip id="12" depart="0.00" departPos="49" from="-24242882#0" to="-24242882#0" type="car"/>
	<trip id="13" depart="0.00" departPos="74" from="-24242882#0" to="-24242882#0" type="car"/>
	<trip id="14" depart="0.00" departPos="99" from="-24242882#0" to="-24242882#0" type="car"/>
	<trip id="15" depart="0.00" departPos="11" from="171423001#0" to="171423001#0" type="car"/>
	<trip id="16" depart="0.00" departPos="11" from="171423001#2" to="171423001#2" type="car"/>
	<trip id="17" depart="0.00" departPos="18" from="196850609#0" to="196850609#0" type="car"/>
	<trip id="18" depart="0.00" departPos="7" from="196850609#1" to="196850609#1" type="car"/>
	<trip id="19" depart="0.00" departPos="32" from="194069450#1" to="194069450#1" type="car"/>
	<trip id="20" depart="0.00" departPos="57" from="194069450#1" to="194069450#1" type="car"/>
	<trip id="21" depart="0.00" departPos="17" from="461526152" to="461526152" type="car"/>
	<trip id="22" depart="0.00" departPos="42" from="461526152" to="461526152" type="car"/>
	<trip id="23" depart="0.00" departPos="67" from="461526152" to="461526152" type="car"/>
	<trip id="24" depart="0.00" departPos="92" from="461526152" to="461526152" type="car"/>
	<trip id="25" depart="0.00" departPos="3" from="330840125#0" to="330840125#0" type="car"/>
	<trip id="26" depart="0.00" departPos="58" from="340498982#0" to="340498982#0" type="car"/>
	<trip id="27" depart="0.00" departPos="83" from="340498982#0" to="340498982#0" type="car"/>
	<trip id="28" depart="0.00" departPos="108" from="340498982#0" to="340498982#0" type="car"/>
	<trip id="29" depart="0.00" departPos="16" from="340498982#1" to="340498982#1" type="car"/>
	<trip id="30" depart="0.00" departPos="3" from="340498982#2" to="340498982#2" type="car"/>
	<trip id="31" depart="0.00" departPos="23" from="340498982#3" to="340498982#3" type="car"/>
	<trip id="32" depart="0.00" departPos="48" from="340498982#3" to="340498982#3" type="car"/>
	<trip id="33" depart="0.00" departPos="73" from="340498982#3" to="340498982#3" type="car"/>
	<trip id="34" depart="0.00" departPos="98" from="340498982#3" to="340498982#3" type="car"/>
	<trip id="35" depart="0.00" departPos="17" from="461526153" to="461526153" type="car"/>
	<trip id="36" depart="0.00" departPos="20" from="188386313#0" to="188386313#0" type="car"/>
	<trip id="37" depart="0.00" departPos="45" from="188386313#0" to="188386313#0" type="car"/>
	<trip id="38" depart="0.00" departPos="70" from="188386313#0" to="188386313#0" type="car"/>
	<trip id="39" depart="0.00" departPos="95" from="188386313#0" to="188386313#0" type="car"/>
	<trip id="40" depart="0.00" departPos="120" from="188386313#0" to="188386313#0" type="car"/>
	<trip id="41" depart="0.00" departPos="145" from="188386313#0" to="188386313#0" type="car"/>
	<trip id="42" depart="0.00" departPos="170" from="188386313#0" to="188386313#0" type="car"/>
	<trip id="43" depart="0.00" departPos="50" from="24913304#1" to="24913304#1" type="car"/>
	<trip id="44" depart="0.00" departPos="75" from="24913304#1" to="24913304#1" type="car"/>
	<trip id="45" depart="0.00" departPos="100" from="24913304#1" to="24913304#1" type="car"/>
	<trip id="46" depart="0.00" departPos="18" from="24913304#2" to="24913304#2" type="car"/>
	<trip id="47" depart="0.00" departPos="7" from="24913304#3" to="24913304#3" type="car"/>
	<trip id="48" depart="0.00" departPos="7" from="24913304#4" to="24913304#4" type="car"/>
	<trip id="49" depart="0.00" departPos="32" from="24913304#4" to="24913304#4" type="car"/>
	<trip id="50" depart="0.00" departPos="57" from="24913304#4" to="24913304#4" type="car"/>
	<trip id="51" depart="0.00" departPos="10" from="530085625#0" to="530085625#0" type="car"/>
	<trip id="52" depart="0.00" departPos="35" from="530085625#0" to="530085625#0" type="car"/>
	<trip id="53" depart="0.00" departPos="3" from="-108031933#1" to="-108031933#1" type="car"/>
	<trip id="54" depart="0.00" departPos="28" from="24240245#1" to="24240245#1" type="car"/>
	<trip id="55" depart="0.00" departPos="53" from="24240245#1" to="24240245#1" type="car"/>
	<trip id="56" depart="0.00" departPos="2" from="424323348" to="424323348" type="car"/>
	<trip id="57" depart="0.00" departPos="22" from="30805074#0" to="30805074#0" type="car"/>
	<trip id="58" depart="0.00" departPos="47" from="30805074#0" to="30805074#0" type="car"/>
	<trip id="59" depart="0.00" departPos="8" from="-38912785" to="-38912785" type="car"/>
	<trip id="60" depart="0.00" departPos="44" from="24240246#1" to="24240246#1" type="car"/>
	<trip id="61" depart="0.00" departPos="69" from="24240246#1" to="24240246#1" type="car"/>
	<trip id="62" depart="0.00" departPos="5" from="24240246#2" to="24240246#2" type="car"/>
	<trip id="63" depart="0.00" departPos="30" from="24240246#2" to="24240246#2" type="car"/>
	<trip id="64" depart="0.00" departPos="0" from="236092221#0" to="236092221#0" type="car"/>
	<trip id="65" depart="0.00" departPos="4" from="236092221#2" to="236092221#2" type="car"/>
	<trip id="66" depart="0.00" departPos="29" from="236092221#2" to="236092221#2" type="car"/>
	<trip id="67" depart="0.00" departPos="54" from="236092221#2" to="236092221#2" type="car"/>
	<trip id="68" depart="0.00" departPos="12" from="236092221#3" to="236092221#3" type="car"/>
	<trip id="69" depart="0.00" departPos="3" from="24913267#0" to="24913267#0" type="car"/>
	<trip id="70" depart="0.00" departPos="9" from="-155186522" to="-155186522" type="car"/>
	<trip id="71" depart="0.00" departPos="91" from="342968607#1" to="342968607#1" type="car"/>
	<trip id="72" depart="0.00" departPos="116" from="342968607#1" to="342968607#1" type="car"/>
	<trip id="73" depart="0.00" departPos="141" from="342968607#1" to="342968607#1" type="car"/>
	<trip id="74" depart="0.00" departPos="166" from="342968607#1" to="342968607#1" type="car"/>
	<trip id="75" depart="0.00" departPos="5" from="153698380#1" to="153698380#1" type="car"/>
	<trip id="76" depart="0.00" departPos="8" from="24913267#2" to="24913267#2" type="car"/>
	<trip id="77" depart="0.00" departPos="16" from="24913267#3" to="24913267#3" type="car"/>
	<trip id="78" depart="0.00" departPos="41" from="24913267#3" to="24913267#3" type="car"/>
	<trip id="79" depart="0.00" departPos="23" from="326116286#0" to="326116286#0" type="car"/>
	<trip id="80" depart="0.00" departPos="13" from="4588220#2" to="4588220#2" type="car"/>
	<trip id="81" depart="0.00" departPos="2" from="4402014#0" to="4402014#0" type="car"/>
	<trip id="82" depart="0.00" departPos="4" from="4402014#2" to="4402014#2" type="car"/>
	<trip id="83" depart="0.00" departPos="20" from="4402014#3" to="4402014#3" type="car"/>
	<trip id="84" depart="0.00" departPos="45" from="4402014#3" to="4402014#3" type="car"/>
	<trip id="85" depart="0.00" departPos="10" from="47935842" to="47935842" type="car"/>
	<trip id="86" depart="0.00" departPos="35" from="47935842" to="47935842" type="car"/>
	<trip id="87" depart="0.00" departPos="60" from="47935842" to="47935842" type="car"/>
	<trip id="88" depart="0.00" departPos="2" from="-23755739#4" to="-23755739#4" type="car"/>
	<trip id="89" depart="0.00" departPos="27" from="-23755739#4" to="-23755739#4" type="car"/>
	<trip id="90" depart="0.00" departPos="52" from="-23755739#4" to="-23755739#4" type="car"/>
	<trip id="91" depart="0.00" departPos="8" from="43233756#0" to="43233756#0" type="car"/>
	<trip id="92" depart="0.00" departPos="42" from="109902441#0" to="109902441#0" type="car"/>
	<trip id="93" depart="0.00" departPos="67" from="109902441#0" to="109902441#0" type="car"/>
	<trip id="94" depart="0.00" departPos="8" from="109902441#1" to="109902441#1" type="car"/>
	<trip id="95" depart="0.00" departPos="33" from="109902441#1" to="109902441#1" type="car"/>
	<trip id="96" depart="0.00" departPos="58" from="109902441#1" to="109902441#1" type="car"/>
	<trip id="97" depart="0.00" departPos="83" from="109902441#1" to="109902441#1" type="car"/>
	<trip id="98" depart="0.00" departPos="27" from="326116285#2" to="326116285#2" type="car"/>
	<trip id="99" depart="0.00" departPos="52" from="326116285#2" to="326116285#2" type="car"/>
	<trip id="100" depart="0.00" departPos="38" from="326116285#3" to="326116285#3" type="car"/>
	<trip id="101" depart="0.00" departPos="63" from="326116285#3" to="326116285#3" type="car"/>
	<trip id="102" depart="0.00" departPos="12" from="335462874#0" to="335462874#0" type="car"/>
	<trip id="103" depart="0.00" departPos="2" from="-320462163#3" to="-320462163#3" type="car"/>
	<trip id="104" depart="0.00" departPos="4" from="-320462163#1" to="-320462163#1" type="car"/>
	<trip id="105" depart="0.00" departPos="20" from="-320462163#0" to="-320462163#0" type="car"/>
	<trip id="106" depart="0.00" departPos="2" from="-320462164#3" to="-320462164#3" type="car"/>
	<trip id="107" depart="0.00" departPos="21" from="-320462164#2" to="-320462164#2" type="car"/>
	<trip id="108" depart="0.00" departPos="35" from="533509622#3" to="533509622#3" type="car"/>
	<trip id="109" depart="0.00" departPos="60" from="533509622#3" to="533509622#3" type="car"/>
	<trip id="110" depart="0.00" departPos="12" from="-533509622#2" to="-533509622#2" type="car"/>
	<trip id="111" depart="0.00" departPos="12" from="4597324#0" to="4597324#0" type="car"/>
	<trip id="112" depart="0.00" departPos="37" from="4597324#0" to="4597324#0" type="car"/>
	<trip id="113" depart="0.00" departPos="62" from="4597324#0" to="4597324#0" type="car"/>
	<trip id="114" depart="0.00" departPos="87" from="4597324#0" to="4597324#0" type="car"/>
	<trip id="115" depart="0.00" departPos="112" from="4597324#0" to="4597324#0" type="car"/>
	<trip id="116" depart="0.00" departPos="95" from="-533509622#1" to="-533509622#1" type="car"/>
	<trip id="117" depart="0.00" departPos="120" from="-533509622#1" to="-533509622#1" type="car"/>
	<trip id="118" depart="0.00" departPos="145" from="-533509622#1" to="-533509622#1" type="car"/>
	<trip id="119" depart="0.00" departPos="170" from="-533509622#1" to="-533509622#1" type="car"/>
	<trip id="120" depart="0.00" departPos="58" from="-4597320#1" to="-4597320#1" type="car"/>
	<trip id="121" depart="0.00" departPos="83" from="-4597320#1" to="-4597320#1" type="car"/>
	<trip id="122" depart="0.00" departPos="108" from="-4597320#1" to="-4597320#1" type="car"/>
	<trip id="123" depart="0.00" departPos="17" from="-320462164#0" to="-320462164#0" type="car"/>
	<trip id="124" depart="0.00" departPos="8" from="-131577612#2" to="-131577612#2" type="car"/>
	<trip id="125" depart="0.00" departPos="33" from="-131577612#2" to="-131577612#2" type="car"/>
	<trip id="126" depart="0.00" departPos="58" from="-131577612#2" to="-131577612#2" type="car"/>
	<trip id="127" depart="0.00" departPos="20" from="-85255870#0" to="-85255870#0" type="car"/>
	<trip id="128" depart="0.00" departPos="4" from="-335462916" to="-335462916" type="car"/>
	<trip id="129" depart="0.00" departPos="9" from="-4401967#2" to="-4401967#2" type="car"/>
	<trip id="130" depart="0.00" departPos="12" from="23755739#2" to="23755739#2" type="car"/>
	<trip id="131" depart="0.00" departPos="12" from="23755739#3" to="23755739#3" type="car"/>
	<trip id="132" depart="0.00" departPos="37" from="23755739#3" to="23755739#3" type="car"/>
	<trip id="133" depart="0.00" departPos="14" from="85255869#2" to="85255869#2" type="car"/>
	<trip id="134" depart="0.00" departPos="11" from="335462921#0" to="335462921#0" type="car"/>
	<trip id="135" depart="0.00" departPos="36" from="335462921#0" to="335462921#0" type="car"/>
	<trip id="136" depart="0.00" departPos="61" from="335462921#0" to="335462921#0" type="car"/>
	<trip id="137" depart="0.00" departPos="86" from="335462921#0" to="335462921#0" type="car"/>
	<trip id="138" depart="0.00" departPos="111" from="335462921#0" to="335462921#0" type="car"/>
	<trip id="139" depart="0.00" departPos="1" from="335462921#1" to="335462921#1" type="car"/>
	<trip id="140" depart="0.00" departPos="26" from="335462921#1" to="335462921#1" type="car"/>
	<trip id="141" depart="0.00" departPos="51" from="335462921#1" to="335462921#1" type="car"/>
	<trip id="142" depart="0.00" departPos="76" from="335462921#1" to="335462921#1" type="car"/>
	<trip id="143" depart="0.00" departPos="15" from="335462921#3" to="335462921#3" type="car"/>
	<trip id="144" depart="0.00" departPos="3" from="-326116285#0" to="-326116285#0" type="car"/>
	<trip id="145" depart="0.00" departPos="37" from="4588219#0" to="4588219#0" type="car"/>
	<trip id="146" depart="0.00" departPos="62" from="4588219#0" to="4588219#0" type="car"/>
	<trip id="147" depart="0.00" departPos="12" from="4588219#1" to="4588219#1" type="car"/>
	<trip id="148" depart="0.00" departPos="37" from="4588219#1" to="4588219#1" type="car"/>
	<trip id="149" depart="0.00" departPos="62" from="4588219#1" to="4588219#1" type="car"/>
	<trip id="150" depart="0.00" departPos="87" from="4588219#1" to="4588219#1" type="car"/>
	<trip id="151" depart="0.00" departPos="112" from="4588219#1" to="4588219#1" type="car"/>
	<trip id="152" depart="0.00" departPos="24" from="4588219#2" to="4588219#2" type="car"/>
	<trip id="153" depart="0.00" departPos="49" from="4588219#2" to="4588219#2" type="car"/>
	<trip id="154" depart="0.00" departPos="9" from="4588219#3" to="4588219#3" type="car"/>
	<trip id="155" depart="0.00" departPos="34" from="4588219#3" to="4588219#3" type="car"/>
	<trip id="156" depart="0.00" departPos="59" from="4588219#3" to="4588219#3" type="car"/>
	<trip id="157" depart="0.00" departPos="84" from="4588219#3" to="4588219#3" type="car"/>
	<trip id="158" depart="0.00" departPos="109" from="4588219#3" to="4588219#3" type="car"/>
	<trip id="159" depart="0.00" departPos="40" from="168935757#0" to="168935757#0" type="car"/>
	<trip id="160" depart="0.00" departPos="65" from="168935757#0" to="168935757#0" type="car"/>
	<trip id="161" depart="0.00" departPos="39" from="-168935756#2" to="-168935756#2" type="car"/>
	<trip id="162" depart="0.00" departPos="64" from="-168935756#2" to="-168935756#2" type="car"/>
	<trip id="163" depart="0.00" departPos="86" from="292429056#2" to="292429056#2" type="car"/>
	<trip id="164" depart="0.00" departPos="111" from="292429056#2" to="292429056#2" type="car"/>
	<trip id="165" depart="0.00" departPos="136" from="292429056#2" to="292429056#2" type="car"/>
	<trip id="166" depart="0.00" departPos="161" from="292429056#2" to="292429056#2" type="car"/>
	<trip id="167" depart="0.00" departPos="8" from="-530085630#0" to="-530085630#0" type="car"/>
	<trip id="168" depart="0.00" departPos="16" from="-530111226" to="-530111226" type="car"/>
	<trip id="169" depart="0.00" departPos="24" from="-43233756#1" to="-43233756#1" type="car"/>
	<trip id="170" depart="0.00" departPos="9" from="168935757#1" to="168935757#1" type="car"/>
	<trip id="171" depart="0.00" departPos="34" from="168935757#1" to="168935757#1" type="car"/>
	<trip id="172" depart="0.00" departPos="59" from="168935757#1" to="168935757#1" type="car"/>
	<trip id="173" depart="0.00" departPos="56" from="4588222#1" to="4588222#1" type="car"/>
	<trip id="174" depart="0.00" departPos="81" from="4588222#1" to="4588222#1" type="car"/>
	<trip id="175" depart="0.00" departPos="106" from="4588222#1" to="4588222#1" type="car"/>
	<trip id="176" depart="0.00" departPos="32" from="4588222#2" to="4588222#2" type="car"/>
	<trip id="177" depart="0.00" departPos="57" from="4588222#2" to="4588222#2" type="car"/>
	<trip id="178" depart="0.00" departPos="17" from="-196850606#0" to="-196850606#0" type="car"/>
	<trip id="179" depart="0.00" departPos="42" from="-196850606#0" to="-196850606#0" type="car"/>
	<trip id="180" depart="0.00" departPos="67" from="-196850606#0" to="-196850606#0" type="car"/>
	<trip id="181" depart="0.00" departPos="11" from="196850607#1" to="196850607#1" type="car"/>
	<trip id="182" depart="0.00" departPos="14" from="196850607#2" to="196850607#2" type="car"/>
	<trip id="183" depart="0.00" departPos="8" from="196850608#0" to="196850608#0" type="car"/>
	<trip id="184" depart="0.00" departPos="16" from="196850608#1" to="196850608#1" type="car"/>
	<trip id="185" depart="0.00" departPos="58" from="4588222#3" to="4588222#3" type="car"/>
	<trip id="186" depart="0.00" departPos="83" from="4588222#3" to="4588222#3" type="car"/>
	<trip id="187" depart="0.00" departPos="108" from="4588222#3" to="4588222#3" type="car"/>
	<trip id="188" depart="0.00" departPos="37" from="196850606#1" to="196850606#1" type="car"/>
	<trip id="189" depart="0.00" departPos="62" from="196850606#1" to="196850606#1" type="car"/>
	<trip id="190" depart="0.00" departPos="27" from="-4588222#0" to="-4588222#0" type="car"/>
	<trip id="191" depart="0.00" departPos="52" from="-4588222#0" to="-4588222#0" type="car"/>
	<trip id="192" depart="0.00" departPos="13" from="196850606#3" to="196850606#3" type="car"/>
	<trip id="193" depart="0.00" departPos="17" from="-22972473#3" to="-22972473#3" type="car"/>
	<trip id="194" depart="0.00" departPos="42" from="-22972473#3" to="-22972473#3" type="car"/>
	<trip id="195" depart="0.00" departPos="67" from="-22972473#3" to="-22972473#3" type="car"/>
	<trip id="196" depart="0.00" departPos="11" from="-22972473#2" to="-22972473#2" type="car"/>
	<trip id="197" depart="0.00" departPos="36" from="-22972473#2" to="-22972473#2" type="car"/>
	<trip id="198" depart="0.00" departPos="61" from="-22972473#2" to="-22972473#2" type="car"/>
	<trip id="199" depart="0.00" departPos="37" from="243854725#2" to="243854725#2" type="car"/>
	<trip id="200" depart="0.00" departPos="62" from="243854725#2" to="243854725#2" type="car"/>
	<trip id="201" depart="0.00" departPos="13" from="24242882#1" to="24242882#1" type="car"/>
	<trip id="202" depart="0.00" departPos="38" from="24242882#1" to="24242882#1" type="car"/>
	<trip id="203" depart="0.00" departPos="63" from="24242882#1" to="24242882#1" type="car"/>
	<trip id="204" depart="0.00" departPos="88" from="24242882#1" to="24242882#1" type="car"/>
	<trip id="205" depart="0.00" departPos="4" from="4611706#0" to="4611706#0" type="car"/>
	<trip id="206" depart="0.00" departPos="11" from="4611706#1" to="4611706#1" type="car"/>
	<trip id="207" depart="0.00" departPos="36" from="4611706#1" to="4611706#1" type="car"/>
	<trip id="208" depart="0.00" departPos="1" from="35557161#0" to="35557161#0" type="car"/>
	<trip id="209" depart="0.00" departPos="26" from="35557161#0" to="35557161#0" type="car"/>
	<trip id="210" depart="0.00" departPos="51" from="35557161#0" to="35557161#0" type="car"/>
	<trip id="211" depart="0.00" departPos="23" from="35557161#1" to="35557161#1" type="car"/>
	<trip id="212" depart="0.00" departPos="49" from="66071366#0" to="66071366#0" type="car"/>
	<trip id="213" depart="0.00" departPos="74" from="66071366#0" to="66071366#0" type="car"/>
	<trip id="214" depart="0.00" departPos="34" from="-389101365#3" to="-389101365#3" type="car"/>
	<trip id="215" depart="0.00" departPos="59" from="-389101365#3" to="-389101365#3" type="car"/>
	<trip id="216" depart="0.00" departPos="15" from="-389101365#2" to="-389101365#2" type="car"/>
	<trip id="217" depart="0.00" departPos="14" from="68647306#1" to="68647306#1" type="car"/>
	<trip id="218" depart="0.00" departPos="11" from="68647306#2" to="68647306#2" type="car"/>
	<trip id="219" depart="0.00" departPos="36" from="68647306#2" to="68647306#2" type="car"/>
	<trip id="220" depart="0.00" departPos="21" from="35557161#2" to="35557161#2" type="car"/>
	<trip id="221" depart="0.00" departPos="6" from="35557161#3" to="35557161#3" type="car"/>
	<trip id="222" depart="0.00" departPos="31" from="35557161#3" to="35557161#3" type="car"/>
	<trip id="223" depart="0.00" departPos="19" from="35557161#4" to="35557161#4" type="car"/>
	<trip id="224" depart="0.00" departPos="28" from="-4611710#1" to="-4611710#1" type="car"/>
	<trip id="225" depart="0.00" departPos="53" from="-4611710#1" to="-4611710#1" type="car"/>
	<trip id="226" depart="0.00" departPos="49" from="-35557143#2" to="-35557143#2" type="car"/>
	<trip id="227" depart="0.00" departPos="74" from="-35557143#2" to="-35557143#2" type="car"/>
	<trip id="228" depart="0.00" departPos="4" from="-132600840#1" to="-132600840#1" type="car"/>
	<trip id="229" depart="0.00" departPos="14" from="210668637" to="210668637" type="car"/>
</routes>
