<?xml version="1.0" encoding="UTF-8"?>

<!-- generated on Sat Dec  8 18:24:50 2018 by SUMO polyconvert Version 0.30.0
<?xml version="1.0" encoding="UTF-8"?>

<configuration xmlns:xsi="http://www.w3.org/2001/XMLSchema-instance" xsi:noNamespaceSchemaLocation="http://sumo.dlr.de/xsd/polyconvertConfiguration.xsd">

    <input>
        <net-file value="/home/jordan/Downloads/sumo-0.30.0/tools/2018-12-08-18-24-46/osm.net.xml"/>
        <osm-files value="osm_bbox.osm.xml"/>
        <osm.keep-full-type value="true"/>
        <type-file value="/home/jordan/Downloads/sumo-0.30.0/data/typemap/osmPolyconvert.typ.xml"/>
    </input>

    <output>
        <output-file value="/home/jordan/Downloads/sumo-0.30.0/tools/2018-12-08-18-24-46/osm.poly.xml"/>
    </output>

    <processing>
        <poi-layer-offset value="5"/>
    </processing>

    <report>
        <verbose value="true"/>
    </report>

</configuration>
-->

<additional xmlns:xsi="http://www.w3.org/2001/XMLSchema-instance" xsi:noNamespaceSchemaLocation="http://sumo.dlr.de/xsd/additional_file.xsd">
    <location netOffset="-390585.70,-5819657.56" convBoundary="-7152.67,-4276.71,5269.06,3601.63" origBoundary="13.282814,52.477280,13.465648,52.548335" projParameter="+proj=utm +zone=33 +ellps=WGS84 +datum=WGS84 +units=m +no_defs"/>

    <poly id="100950874" type="building.commercial" color="255,230,230" fill="1" layer="-1.00" shape="1062.62,671.37 1043.29,662.83 1039.15,652.51 1050.88,632.14 1064.23,639.37 1062.62,671.37"/>
    <poly id="100950876" type="building.commercial" color="255,230,230" fill="1" layer="-1.00" shape="1100.96,613.14 1097.02,619.72 1089.81,631.80 1087.39,635.84 1087.82,679.93 1088.03,685.47 1089.40,689.37 1091.35,692.79 1093.99,696.03 1098.98,700.01 1102.16,701.58 1121.97,709.23 1153.80,641.62 1100.96,613.14"/>
    <poly id="100950877" type="building.commercial" color="255,230,230" fill="1" layer="-1.00" shape="1132.81,648.23 1113.11,690.11 1106.86,687.93 1104.19,686.30 1102.58,683.45 1101.53,677.98 1103.24,646.31 1128.64,646.40 1132.81,648.23"/>
    <poly id="100950878" type="building.commercial" color="255,230,230" fill="1" layer="-1.00" shape="1071.59,689.43 1076.91,675.61 1077.06,672.22 1078.33,643.69 1078.25,639.79 1076.71,635.11 1074.22,631.01 1070.27,627.22 1066.32,625.42 1055.13,619.49 1044.83,614.05 1025.58,648.18 1023.80,654.24 1023.94,659.99 1025.63,666.49 1032.48,674.12 1071.59,689.43"/>
    <poly id="102522991" type="landuse.construction" color="194,194,130" fill="1" layer="-3.00" shape="1446.35,332.12 1437.01,343.84 1365.60,353.61 1348.57,344.18 1337.91,336.26 1301.52,309.25 1303.17,301.31 1335.80,257.09 1342.00,262.41 1362.74,265.28 1396.36,288.64 1407.93,270.29 1412.87,269.38 1454.25,298.82 1451.27,303.18 1459.41,309.93 1446.35,332.12"/>
    <poly id="104786904" type="natural.grassland" color="140,196,107" fill="1" layer="-4.00" shape="422.92,309.72 428.25,247.87 408.86,246.21 403.51,308.06 422.92,309.72"/>
    <poly id="104786906" type="building.yes" color="255,230,230" fill="1" layer="-1.00" shape="437.11,414.26 500.43,425.85 493.43,435.94 489.74,440.73 485.27,446.53 483.36,449.01 469.26,448.08 457.88,447.34 458.48,440.17 479.99,441.84 481.32,434.82 441.46,428.09 439.95,429.17 438.10,438.51 439.13,439.68 438.93,440.69 438.08,441.09 437.86,445.79 434.37,445.57 431.07,445.34 431.47,443.24 435.33,423.86 436.94,413.80 437.11,414.26"/>
    <poly id="104786907" type="building.residential" color="255,230,230" fill="1" layer="-1.00" shape="465.88,395.90 464.61,408.76 424.92,401.40 428.02,369.22 441.64,370.34 442.84,356.67 456.15,357.73 455.01,370.07 447.19,369.25 445.91,382.89 453.80,383.55 453.34,388.76 452.88,394.72 465.88,395.90"/>
    <poly id="104786910" type="building.yes" color="255,230,230" fill="1" layer="-1.00" shape="543.60,422.70 556.27,406.13 540.17,393.55 540.88,392.63 540.10,392.03 543.17,388.03 543.88,388.57 544.83,387.35 548.78,390.39 549.54,389.40 566.32,402.30 573.58,392.99 583.64,396.08 563.47,422.20 555.98,431.92 543.60,422.70"/>
    <poly id="104786915" type="building.yes" color="255,230,230" fill="1" layer="-1.00" shape="541.11,415.84 527.58,413.43 526.46,419.67 539.97,422.18 541.11,415.84"/>
    <poly id="104786916" type="building.yes" color="255,230,230" fill="1" layer="-1.00" shape="569.40,348.10 564.56,365.19 602.64,376.19 607.44,362.22 604.78,361.11 602.22,359.19 599.52,357.02 595.82,355.48 581.51,351.44 569.40,348.10"/>
    <poly id="104991245" type="building.yes" color="255,230,230" fill="1" layer="-1.00" shape="461.72,726.90 448.15,731.46 451.73,742.08 465.55,783.03 479.12,778.48 461.72,726.90"/>
    <poly id="104991246" type="building.yes" color="255,230,230" fill="1" layer="-1.00" shape="351.70,775.23 350.42,771.58 365.64,766.20 366.93,769.76 351.70,775.23"/>
    <poly id="105733781" type="building.apartments" color="255,230,230" fill="1" layer="-1.00" shape="261.71,848.13 262.14,854.21 256.06,854.09 256.30,848.21 244.51,847.76 244.98,834.11 260.61,834.64 261.71,848.13"/>
    <poly id="105733786" type="building.apartments" color="255,230,230" fill="1" layer="-1.00" shape="288.86,886.80 287.47,850.38 285.97,850.56 285.89,849.07 275.95,848.79 276.07,850.98 272.63,851.01 274.01,882.17 275.47,882.10 275.71,887.21 288.86,886.80"/>
    <poly id="105733787" type="building.apartments" color="255,230,230" fill="1" layer="-1.00" shape="285.89,849.07 286.66,835.42 260.61,834.64 261.71,848.13 275.95,848.79 285.89,849.07"/>
    <poly id="105733792" type="building.apartments" color="255,230,230" fill="1" layer="-1.00" shape="313.55,849.96 285.89,849.07 286.66,835.42 320.42,836.41 327.40,856.43 316.14,859.65 313.55,849.96"/>
    <poly id="109089263" type="building.residential" color="255,230,230" fill="1" layer="-1.00" shape="811.83,838.97 813.55,856.57 815.29,856.38 816.44,869.67 815.77,869.78 814.45,876.95 820.08,878.04 828.17,841.31 827.66,840.73 828.48,838.15 826.15,838.48 825.62,837.61 811.83,838.97"/>
    <poly id="11548677" type="waterway.riverbank" color="181,209,209" fill="0" layer="-4.00" shape="1573.58,-346.01 1543.70,-363.06 1411.00,-432.90 1403.49,-439.92 1393.08,-447.45 1390.38,-449.41 1373.99,-461.26 1332.18,-489.72 1279.98,-515.92 1267.64,-520.51 1245.56,-528.53 1238.90,-531.95 1236.50,-532.86 1214.87,-537.45 1151.82,-545.20 1106.28,-543.10 1085.50,-541.25 1081.23,-540.46 1078.70,-539.49 1075.64,-537.65 1072.70,-535.27 1070.59,-533.31 1069.00,-531.37 1067.74,-529.60 1049.31,-494.12 1041.66,-479.47 927.71,-283.57 922.18,-273.80 868.92,-167.60 854.57,-125.48 816.37,-30.29 808.33,-13.98 730.18,137.40 725.46,174.55 697.44,280.28 678.92,330.86 680.55,334.54 678.02,339.17 664.87,360.27 663.08,360.07 654.00,376.31 599.97,415.68 506.51,528.19 494.24,543.07 482.12,557.48 423.40,628.86 426.06,631.09 416.50,642.82 413.80,640.64 411.53,644.66 406.14,647.05"/>
    <poly id="120456814" type="amenity.university" color="237,199,199" fill="1" layer="-1.00" shape="232.74,427.79 232.87,428.59 269.95,431.78 276.57,432.38 303.80,434.72 308.24,380.45 326.51,381.84 335.12,382.52 338.05,382.87 347.76,383.59 347.18,389.69 345.83,402.02 345.39,407.34 345.37,407.73 347.53,407.98 346.82,413.39 346.78,413.65 345.60,425.43 334.19,424.36 333.00,437.34 371.76,440.51 372.89,440.64 378.27,381.57 378.64,376.61 379.67,366.74 382.25,331.74 481.36,340.55 494.05,254.29 501.64,168.33 350.72,155.18 346.12,206.69 336.71,347.45 329.58,346.76 311.69,346.39 277.95,343.34 256.11,341.46 255.33,350.51 247.80,349.86 242.94,406.24 242.87,407.02 241.39,406.90 221.47,405.19 220.83,412.61 228.83,413.30 228.95,411.90 233.23,412.27 233.11,413.69 233.92,413.77 232.75,427.32 232.74,427.79"/>
    <poly id="121673258" type="landuse.construction" color="194,194,130" fill="1" layer="-3.00" shape="812.58,36.23 810.54,41.27 808.61,39.92 803.80,46.45 820.34,58.72 796.49,95.69 782.96,91.59 770.47,94.54 765.72,104.49 771.68,138.20 775.60,149.97 794.42,151.43 791.52,155.13 804.73,157.92 817.32,161.95 830.34,166.78 853.97,181.34 881.46,141.92 902.01,156.80 884.38,181.83 998.41,249.54 1081.66,113.31 1095.26,81.48 1022.17,35.51 942.93,-14.77 937.21,-17.07 930.40,-17.79 924.05,-14.94 902.89,12.85 843.00,-27.99 838.05,-30.24 834.53,-24.80 845.84,-15.61 842.07,-8.98 843.84,-7.39 841.26,-4.88 836.83,-3.24 832.54,-3.86 808.53,28.27 811.81,32.09 812.58,36.23"/>
    <poly id="121717655" type="building.yes" color="255,230,230" fill="1" layer="-1.00" shape="644.26,363.70 652.09,351.23 618.68,330.40 614.39,342.83 634.77,355.53 633.72,357.18 644.26,363.70"/>
    <poly id="121717655#1" type="shop.art" color="237,199,255" fill="1" layer="-1.00" shape="644.26,363.70 652.09,351.23 618.68,330.40 614.39,342.83 634.77,355.53 633.72,357.18 644.26,363.70"/>
    <poly id="121717656" type="landuse.construction" color="194,194,130" fill="1" layer="-3.00" shape="689.55,359.90 679.87,372.42 621.50,426.83 608.91,443.29 648.37,474.31 718.87,378.74 707.95,371.73 694.46,363.05 689.55,359.90"/>
    <poly id="121717767" type="leisure.park" color="207,245,201" fill="1" layer="-2.00" shape="742.46,450.48 767.27,469.30 768.97,466.96 767.85,465.55 767.46,464.10 767.57,462.71 768.40,461.20 769.74,460.15 771.35,459.81 772.69,460.04 773.87,461.06 776.09,458.22 778.73,460.25 779.49,459.29 781.25,458.36 783.04,458.44 784.68,459.55 785.73,461.02 785.92,462.64 785.47,464.16 784.68,465.15 787.91,467.66 785.74,470.44 786.89,471.50 787.50,472.80 787.24,474.30 786.47,475.53 785.18,476.56 783.49,476.87 782.17,476.46 781.25,475.88 779.32,478.45 797.61,492.32 755.49,547.83 766.77,556.29 832.32,470.21 761.39,424.12 742.46,450.48"/>
    <poly id="125736711" type="building.viaduct" color="255,230,230" fill="1" layer="-1.00" shape="1122.72,760.73 1165.11,777.45 1181.07,782.73 1199.08,787.62 1217.18,791.08 1228.38,792.88 1239.03,794.14 1250.35,794.97 1260.23,795.31 1268.24,795.25 1275.62,795.10 1285.20,794.94 1297.90,793.92 1308.90,792.50 1318.05,791.11 1329.51,788.93 1340.57,786.26 1334.19,769.31 1314.69,773.56 1297.08,775.92 1283.82,776.89 1273.06,777.24 1262.35,777.29 1241.71,776.38 1221.57,773.69 1211.01,771.69 1189.21,766.26 1181.89,763.75 1172.71,760.62 1156.95,754.56 1132.39,743.48 1122.72,760.73"/>
    <poly id="126128623" type="building.yes" color="255,230,230" fill="1" layer="-1.00" shape="867.22,744.62 872.74,754.68 874.94,758.04 877.74,760.98 880.58,763.37 900.56,777.44 893.00,786.40 891.89,784.88 887.97,780.91 882.18,775.14 866.17,759.17 861.42,762.04 856.30,765.58 849.92,756.14 867.22,744.62"/>
    <poly id="126128623#1" type="tourism.hotel" color="207,245,201" fill="1" layer="-2.00" shape="867.22,744.62 872.74,754.68 874.94,758.04 877.74,760.98 880.58,763.37 900.56,777.44 893.00,786.40 891.89,784.88 887.97,780.91 882.18,775.14 866.17,759.17 861.42,762.04 856.30,765.58 849.92,756.14 867.22,744.62"/>
    <poly id="127177463" type="landuse.grass" color="194,194,130" fill="1" layer="-3.00" shape="497.04,361.27 490.81,413.50 501.27,415.31 526.44,419.59 527.54,413.14 540.17,393.55 540.88,392.63 540.10,392.03 543.17,388.03 543.88,388.57 544.83,387.35 548.78,390.39 549.54,389.40 566.32,402.30 573.58,392.99 583.64,396.08 573.26,388.31 497.04,361.27"/>
    <poly id="127177463#1" type="leisure.garden" color="207,245,201" fill="1" layer="-2.00" shape="497.04,361.27 490.81,413.50 501.27,415.31 526.44,419.59 527.54,413.14 540.17,393.55 540.88,392.63 540.10,392.03 543.17,388.03 543.88,388.57 544.83,387.35 548.78,390.39 549.54,389.40 566.32,402.30 573.58,392.99 583.64,396.08 573.26,388.31 497.04,361.27"/>
    <poly id="127178490" type="building.yes" color="255,230,230" fill="1" layer="-1.00" shape="529.87,465.92 506.71,446.29 501.99,442.60 497.33,438.98 493.43,435.94 489.74,440.73 515.98,461.19 512.52,465.63 499.37,455.38 498.33,456.71 485.27,446.53 483.36,449.01 482.66,449.92 519.59,480.08 529.87,465.92"/>
    <poly id="127178491" type="building.yes" color="255,230,230" fill="1" layer="-1.00" shape="522.21,426.65 506.71,446.29 529.87,465.92 550.78,438.26 540.01,430.03 537.33,429.56 522.21,426.65"/>
    <poly id="127182169" type="building.yes" color="255,230,230" fill="1" layer="-1.00" shape="516.00,445.64 524.31,452.00 535.11,437.91 523.67,434.88 516.00,445.64"/>
    <poly id="128565935" type="building.residential" color="255,230,230" fill="1" layer="-1.00" shape="810.12,704.22 811.05,703.91 810.21,701.39 809.20,701.70 808.45,699.34 816.10,696.85 817.70,699.93 826.60,717.00 830.96,729.67 819.02,733.67 807.07,737.67 806.51,735.96 802.80,724.97 802.73,724.68 816.48,720.12 815.00,715.68 814.06,716.00 810.12,704.22"/>
    <poly id="128565938" type="building.residential" color="255,230,230" fill="1" layer="-1.00" shape="753.29,724.68 765.46,719.95 766.43,722.42 769.40,730.08 772.29,737.49 776.75,736.01 776.01,733.83 782.42,731.68 786.13,742.76 786.71,744.49 775.33,748.30 763.94,752.11 753.29,724.68"/>
    <poly id="128565939" type="building.residential" color="255,230,230" fill="1" layer="-1.00" shape="807.07,737.67 796.89,741.07 786.71,744.49 786.13,742.76 782.42,731.68 797.57,726.62 789.94,708.64 789.31,706.94 759.59,705.38 759.02,703.94 756.74,698.08 756.08,696.39 791.57,698.25 792.25,699.88 794.00,704.04 794.70,705.69 795.35,707.25 792.03,707.09 799.66,725.11 801.89,724.37 802.13,725.08 802.80,724.97 806.51,735.96 807.07,737.67"/>
    <poly id="128565940" type="building.commercial" color="255,230,230" fill="1" layer="-1.00" shape="851.35,704.37 831.98,703.61 829.13,698.17 829.15,697.56 846.40,698.24 846.37,698.48 846.43,698.73 846.57,698.92 846.79,699.05 847.03,699.09 847.19,699.06 851.35,704.37"/>
    <poly id="129400887" type="building.residential" color="255,230,230" fill="1" layer="-1.00" shape="468.78,838.72 477.42,866.95 460.17,872.62 457.99,866.31 458.97,865.83 459.89,864.72 459.94,863.09 459.18,861.86 458.00,861.59 456.34,861.76 449.19,841.55 468.78,838.72"/>
    <poly id="130777430" type="building.residential" color="255,230,230" fill="1" layer="-1.00" shape="466.88,389.95 466.43,389.90 465.88,395.90 487.71,397.90 491.11,360.94 477.06,359.65 476.55,365.09 471.73,364.65 471.10,371.55 475.83,371.98 474.48,386.68 467.24,386.01 466.88,389.95"/>
    <poly id="131765142" type="building.yes" color="255,230,230" fill="1" layer="-1.00" shape="557.12,326.59 576.23,328.74 579.09,326.59 582.15,326.88 583.41,328.65 586.14,328.63 603.61,339.93 604.84,342.32 612.66,347.75 614.39,342.83 618.68,330.40 590.72,312.63 590.17,313.63 589.21,313.52 589.19,312.68 588.39,311.73 587.63,311.04 586.29,310.92 585.38,311.31 584.42,312.04 583.89,313.49 581.63,313.28 573.14,312.48 564.03,311.57 562.97,320.48 559.15,320.10 557.12,326.59"/>
    <poly id="131765143" type="building.yes" color="255,230,230" fill="1" layer="-1.00" shape="633.70,278.05 631.27,295.90 634.85,296.22 639.11,296.64 641.64,268.47 637.87,268.09 635.06,267.81 635.00,268.53 628.19,268.06 621.23,268.29 614.13,269.29 606.34,271.40 605.33,269.84 603.71,268.60 601.62,268.08 599.72,268.30 598.70,268.67 597.57,269.39 596.66,270.42 596.06,271.52 595.67,272.74 595.60,274.10 595.93,275.64 596.71,277.13 597.75,278.10 598.62,278.65 599.51,279.01 600.27,279.19 601.78,279.26 602.65,279.07 603.50,278.74 603.80,279.44 603.37,279.87 603.13,280.33 603.04,280.98 603.21,281.56 603.41,281.91 603.77,282.27 604.19,282.51 604.72,282.61 605.14,282.58 605.57,283.57 615.22,279.91 620.46,279.21 633.70,278.05"/>
    <poly id="131765147" type="building.yes" color="255,230,230" fill="1" layer="-1.00" shape="599.52,357.02 602.22,359.19 604.78,361.11 607.44,362.22 612.66,347.75 604.84,342.32 599.52,357.02"/>
    <poly id="131765148" type="building.yes" color="255,230,230" fill="1" layer="-1.00" shape="528.63,308.09 530.96,308.26 529.51,322.29 527.09,345.01 524.91,345.02 525.67,341.02 526.36,328.07 528.63,308.09"/>
    <poly id="131783066" type="building.yes" color="255,230,230" fill="1" layer="-1.00" shape="522.21,426.65 506.71,446.29 501.99,442.60 508.54,433.52 502.32,432.04 497.33,438.98 493.43,435.94 500.43,425.85 502.68,422.94 522.21,426.65"/>
    <poly id="131835792" type="building.yes" color="255,230,230" fill="1" layer="-1.00" shape="473.61,489.63 453.49,474.16 461.96,463.55 468.36,468.49 482.08,479.11 473.61,489.63"/>
    <poly id="131835793" type="building.yes" color="255,230,230" fill="1" layer="-1.00" shape="443.09,465.98 430.39,455.60 434.37,445.57 437.86,445.79 451.35,455.34 443.09,465.98"/>
    <poly id="131835794" type="building.university" color="255,230,230" fill="1" layer="-1.00" shape="453.49,474.16 443.09,465.98 451.35,455.34 458.55,460.91 461.96,463.55 453.49,474.16"/>
    <poly id="131835795" type="building.yes" color="255,230,230" fill="1" layer="-1.00" shape="519.59,480.08 508.35,493.64 496.52,484.41 502.12,477.00 477.05,457.20 482.66,449.92 519.59,480.08"/>
    <poly id="131835796" type="building.yes" color="255,230,230" fill="1" layer="-1.00" shape="508.35,493.64 497.32,507.94 473.61,489.63 482.08,479.11 493.64,488.05 496.52,484.41 508.35,493.64"/>
    <poly id="131835797" type="building.yes" color="255,230,230" fill="1" layer="-1.00" shape="468.36,468.49 461.96,463.55 458.55,460.91 469.26,448.08 483.36,449.01 482.66,449.92 477.05,457.20 468.36,468.49"/>
    <poly id="131835798" type="building.yes" color="255,230,230" fill="1" layer="-1.00" shape="510.52,299.12 507.63,326.01 506.37,338.83 505.88,342.83 524.91,345.02 525.67,341.02 526.36,328.07 528.63,308.09 529.07,304.35 529.75,303.69 530.71,300.97 525.24,300.43 519.52,299.91 514.38,299.51 510.52,299.12"/>
    <poly id="131835798#1" type="historic.yes" color="128,255,128" fill="1" layer="-1.00" shape="510.52,299.12 507.63,326.01 506.37,338.83 505.88,342.83 524.91,345.02 525.67,341.02 526.36,328.07 528.63,308.09 529.07,304.35 529.75,303.69 530.71,300.97 525.24,300.43 519.52,299.91 514.38,299.51 510.52,299.12"/>
    <poly id="133885752" type="building.roof" color="255,230,230" fill="1" layer="-1.00" shape="692.61,488.29 691.28,487.25 693.60,484.27 709.92,463.32 711.60,464.64 723.75,449.04 721.87,447.57 737.55,427.65 742.62,421.21 748.52,413.56 744.55,411.03 741.78,409.28 739.08,407.56 730.55,402.15 725.42,398.89 715.74,392.74 717.94,390.06 720.26,387.26 762.66,415.18 820.69,453.42 842.53,467.85 840.08,471.05 765.96,567.95 754.49,559.10 749.45,555.22 751.45,552.65 753.65,549.84 764.33,558.09 765.25,558.79 799.15,514.43 832.99,470.15 816.31,459.20 777.92,434.19 758.09,421.28 753.50,418.30 715.34,468.29 690.47,500.05 704.17,510.73 705.99,512.14 704.06,514.73 701.93,517.59 684.23,503.68 650.34,476.80 654.29,471.62 666.10,480.82 672.96,486.16 674.69,487.52 672.53,490.28 684.06,499.26 686.32,496.36 692.61,488.29"/>
    <poly id="133887411" type="building.yes" color="255,230,230" fill="1" layer="-1.00" shape="749.45,555.22 736.62,571.41 734.08,574.04 730.99,576.17 728.08,577.82 724.17,579.36 719.21,580.61 713.59,580.99 708.54,580.24 703.65,582.97 708.01,593.38 717.93,588.94 717.17,587.52 721.70,586.94 726.39,585.61 730.70,583.86 734.55,581.67 738.45,578.92 741.64,575.79 754.49,559.10 749.45,555.22"/>
    <poly id="145276462" type="building.yes" color="255,230,230" fill="1" layer="-1.00" shape="321.55,436.44 333.00,437.34 334.19,424.36 329.78,424.05 330.46,414.50 334.86,414.84 335.21,411.20 346.82,413.39 347.53,407.98 345.37,407.73 345.39,407.34 337.85,405.85 339.58,389.20 347.18,389.69 347.76,383.59 338.05,382.87 337.34,386.94 334.85,386.56 335.12,382.52 326.51,381.84 321.55,436.44"/>
    <poly id="145662520" type="waterway.canal" color="181,209,209" fill="0" layer="-4.00" shape="680.12,354.32 659.84,380.45 612.98,419.19 559.22,484.42 512.48,540.29 502.73,552.40 448.35,617.58 428.19,642.24 383.44,698.08"/>
    <poly id="147686957" type="building.residential" color="255,230,230" fill="1" layer="-1.00" shape="1116.95,777.24 1108.75,774.16 1106.00,774.28 1102.97,775.09 1097.10,779.51 1104.87,788.92 1106.88,787.60 1112.27,787.92 1116.95,777.24"/>
    <poly id="147686966" type="building.residential" color="255,230,230" fill="1" layer="-1.00" shape="929.12,832.17 930.75,832.10 942.21,832.09 943.70,845.19 943.67,858.07 943.82,872.72 930.33,873.24 930.35,858.44 938.04,858.27 937.72,846.64 931.69,846.76 929.86,846.70 929.12,832.17"/>
    <poly id="147699484" type="building.yes" color="255,230,230" fill="1" layer="-1.00" shape="436.94,413.80 435.33,423.86 422.78,422.85 422.46,428.73 416.29,428.06 414.87,444.24 402.81,443.24 404.23,425.78 405.87,425.97 407.29,407.40 424.77,408.60 424.13,411.52 436.94,413.80"/>
    <poly id="147699490" type="building.yes" color="255,230,230" fill="1" layer="-1.00" shape="430.39,455.60 414.87,444.24 416.29,428.06 422.46,428.73 421.58,435.87 431.47,443.24 431.07,445.34 434.37,445.57 430.39,455.60"/>
    <poly id="150634669" type="building.viaduct" color="255,230,230" fill="1" layer="-1.00" shape="321.35,448.86 347.71,452.17 367.11,455.79 392.02,462.18 417.59,471.87 441.97,483.69 463.49,497.20 479.85,508.85 477.58,511.68 475.35,514.48 472.57,517.96 470.30,520.79 468.49,523.07 452.72,512.27 432.09,499.92 408.88,488.22 384.68,478.62 361.85,472.51 344.74,468.95 319.68,466.46 321.35,448.86"/>
    <poly id="154321042" type="building.yes" color="255,230,230" fill="1" layer="-1.00" shape="802.46,824.80 818.87,823.30 814.35,809.68 800.91,818.05 802.46,824.80"/>
    <poly id="158844339" type="building.yes" color="255,230,230" fill="1" layer="-1.00" shape="312.32,527.42 309.99,549.84 341.33,552.75 367.74,614.32 386.08,607.12 353.25,530.50 312.32,527.42"/>
    <poly id="159534658" type="waterway.river" color="181,209,209" fill="0" layer="-4.00" shape="1462.55,-173.72 1430.09,-169.10 1371.84,-144.97 1319.86,-130.41 1266.56,-91.88 1228.59,-53.05 1191.85,-11.97 1143.27,56.89 1122.30,90.35 1028.24,250.13 1010.53,281.25 980.24,331.00 952.73,381.91 921.28,431.37 883.56,480.42 870.51,500.28 854.24,525.63 831.48,549.59 793.97,577.21 726.54,606.07 686.93,621.42 639.15,640.84 564.53,670.24 475.04,685.90 456.97,687.84 383.44,698.08 295.98,710.80 261.56,708.63 146.66,697.98 125.68,695.46 67.73,685.22 43.41,675.08 -28.29,609.45 -96.97,549.42 -133.79,516.91 -160.87,492.73 -199.34,465.98 -258.27,436.16 -353.92,392.43 -449.23,364.06 -487.35,362.90 -533.77,361.60 -560.82,365.85 -581.74,369.12 -602.58,375.69 -622.92,383.90 -646.62,396.39 -665.38,407.53 -683.91,421.08 -701.40,435.83 -721.23,458.51 -730.10,475.97 -731.50,479.89 -737.06,494.69 -739.83,506.99 -741.37,519.37 -742.01,528.38 -745.55,562.33 -749.35,587.46 -755.46,615.98 -766.25,639.43 -774.03,656.49 -780.51,665.42 -784.68,671.57 -798.50,687.56 -817.37,707.71 -839.39,724.97 -868.81,748.35 -901.29,767.71 -934.99,784.70 -962.19,793.36 -990.98,799.42 -1023.24,804.27"/>
    <poly id="15968753" type="building.yes" color="255,230,230" fill="1" layer="-1.00" shape="747.05,317.93 719.60,364.16 794.01,408.29 798.30,401.25 799.02,400.07 821.82,362.57 799.13,348.99 784.96,340.50 770.65,331.98 747.05,317.93"/>
    <poly id="15968753#1" type="tourism.museum" color="207,245,201" fill="1" layer="-2.00" shape="747.05,317.93 719.60,364.16 794.01,408.29 798.30,401.25 799.02,400.07 821.82,362.57 799.13,348.99 784.96,340.50 770.65,331.98 747.05,317.93"/>
    <poly id="15968754" type="building.yes" color="255,230,230" fill="1" layer="-1.00" shape="740.36,354.23 739.59,353.78 747.22,340.80 748.14,341.34 748.68,340.43 760.87,347.55 760.40,348.34 761.18,348.81 758.98,352.55 754.63,350.00 751.28,355.70 755.36,358.09 753.30,361.61 752.37,361.07 751.81,362.02 739.88,355.04 740.36,354.23"/>
    <poly id="15968754#1" type="tourism.museum" color="207,245,201" fill="1" layer="-2.00" shape="740.36,354.23 739.59,353.78 747.22,340.80 748.14,341.34 748.68,340.43 760.87,347.55 760.40,348.34 761.18,348.81 758.98,352.55 754.63,350.00 751.28,355.70 755.36,358.09 753.30,361.61 752.37,361.07 751.81,362.02 739.88,355.04 740.36,354.23"/>
    <poly id="15968756" type="building.yes" color="255,230,230" fill="1" layer="-1.00" shape="780.02,379.52 780.67,378.46 779.82,377.96 782.14,374.13 785.75,376.30 789.31,370.44 785.75,368.28 787.82,364.86 788.73,365.40 789.35,364.37 801.17,371.50 800.75,372.20 801.63,372.72 793.23,386.57 792.39,386.07 791.99,386.73 780.02,379.52"/>
    <poly id="15968756#1" type="tourism.museum" color="207,245,201" fill="1" layer="-2.00" shape="780.02,379.52 780.67,378.46 779.82,377.96 782.14,374.13 785.75,376.30 789.31,370.44 785.75,368.28 787.82,364.86 788.73,365.40 789.35,364.37 801.17,371.50 800.75,372.20 801.63,372.72 793.23,386.57 792.39,386.07 791.99,386.73 780.02,379.52"/>
    <poly id="15971186" type="building.yes" color="255,230,230" fill="1" layer="-1.00" shape="602.51,166.14 602.33,168.38 602.78,168.43 602.65,170.09 602.53,171.53 601.98,171.48 601.54,176.97 602.07,177.01 601.67,181.99 600.95,181.94 600.50,187.55 601.14,187.59 600.92,190.40 600.24,190.35 599.86,195.22 600.37,195.26 600.07,199.11 599.41,199.06 599.09,203.09 597.69,202.98 597.30,207.75 596.51,208.44 596.17,213.41 596.79,214.22 596.40,219.15 597.64,219.26 597.33,223.18 597.82,223.22 597.56,226.56 596.95,226.51 596.53,231.80 597.00,231.84 596.77,234.84 596.19,234.79 595.74,240.46 596.19,240.49 595.78,245.61 595.22,245.56 594.79,250.94 595.20,250.97 594.99,253.67 594.49,253.64 594.38,255.01 594.85,255.04 594.78,255.90 595.96,255.99 595.92,256.44 604.05,257.09 604.00,257.70 607.77,257.99 611.21,258.27 611.24,257.92 631.21,259.50 631.16,260.02 648.12,261.37 648.14,261.15 667.57,262.69 667.52,263.24 674.70,263.82 674.73,263.42 683.35,264.10 683.37,263.71 684.28,263.79 684.35,262.91 684.90,262.96 684.99,261.82 684.35,261.77 684.61,258.50 685.34,258.56 685.77,253.16 685.19,253.10 685.61,247.87 686.22,247.92 686.62,242.86 686.15,242.81 686.42,239.47 686.98,239.51 687.40,234.29 686.90,234.26 687.17,230.89 687.69,230.94 688.01,226.90 689.28,227.01 689.68,222.02 690.49,221.55 690.95,216.88 690.12,216.17 690.55,211.10 689.47,211.01 689.81,206.69 689.23,206.64 689.44,203.95 690.11,204.00 690.57,198.27 689.93,198.22 690.15,195.41 690.82,195.46 691.28,189.76 690.80,189.73 691.18,184.98 691.73,185.02 692.18,179.32 691.73,179.27 691.88,177.42 692.00,175.99 692.57,176.04 692.64,175.24 692.09,175.20 692.19,173.96 689.81,173.77 689.77,174.30 687.04,174.08 687.09,173.51 681.57,173.06 681.53,173.60 676.37,173.19 676.42,172.58 671.54,172.19 671.50,172.74 668.37,172.49 668.42,171.86 662.83,171.42 662.78,171.99 659.53,171.74 659.58,171.10 655.68,170.79 655.76,169.80 650.09,169.36 649.97,170.87 647.32,170.65 644.97,170.47 645.12,168.69 639.55,168.24 639.46,169.28 635.10,168.93 635.05,169.49 632.46,169.29 632.50,168.73 626.94,168.29 626.89,168.99 624.02,168.77 624.08,168.04 618.77,167.63 618.73,168.23 613.01,167.78 613.06,167.02 608.15,166.63 608.10,167.30 605.30,167.08 605.36,166.37 602.51,166.14"/>
    <poly id="15976893" type="building.university" color="255,230,230" fill="1" layer="-1.00" shape="387.33,162.29 387.43,161.02 350.65,158.00 346.98,202.58 362.60,203.86 353.51,313.91 339.89,312.79 338.69,327.29 346.16,327.92 346.09,328.77 365.74,330.40 365.81,329.56 373.91,330.24 382.40,229.27 405.56,231.21 405.33,234.01 434.42,236.45 434.67,233.52 458.36,235.52 455.25,271.94 449.73,336.69 455.84,337.21 455.75,338.23 466.33,339.13 472.33,339.67 472.42,338.68 478.43,339.22 478.65,336.81 479.35,336.87 480.42,324.83 470.41,323.95 480.15,214.19 497.04,215.69 500.99,171.15 464.34,167.91 464.24,168.99 463.25,180.02 460.27,215.43 436.38,213.43 436.62,210.54 436.06,210.49 436.24,208.32 424.39,207.32 408.61,205.99 408.44,208.08 407.76,208.03 407.51,211.04 383.47,209.02 386.43,173.74 387.33,162.29"/>
    <poly id="16000014" type="leisure.park" color="207,245,201" fill="1" layer="-2.00" shape="738.60,312.90 747.05,317.93 770.65,331.98 784.96,340.50 799.13,348.99 821.82,362.57 830.01,367.44 904.57,241.76 813.13,188.48 738.60,312.90"/>
    <poly id="162018681" type="building.residential" color="255,230,230" fill="1" layer="-1.00" shape="870.57,800.05 871.83,803.02 871.31,803.41 871.96,805.95 880.03,805.66 898.63,805.16 898.43,802.50 897.96,802.49 896.82,798.96 893.64,798.90 890.98,795.07 886.71,789.09 874.48,797.99 873.64,798.58 873.45,798.34 870.57,800.05"/>
    <poly id="165015473" type="amenity.theatre" color="237,199,199" fill="1" layer="-1.00" shape="518.29,783.57 512.04,763.11 492.85,768.94 483.98,739.90 505.59,733.32 511.27,751.92 531.91,745.66 532.07,746.20 541.35,776.56 521.60,782.56 518.29,783.57"/>
    <poly id="16603261" type="landuse.grass" color="194,194,130" fill="1" layer="-3.00" shape="1360.82,518.54 1363.09,520.17 1364.10,520.40 1365.12,520.42 1366.09,520.16 1366.84,519.43 1381.56,499.98 1381.76,498.60 1381.41,497.31 1380.65,496.47 1379.58,496.03 1337.44,493.14 1335.94,493.59 1335.04,494.55 1334.53,496.01 1335.35,497.95 1360.82,518.54"/>
    <poly id="16872940" type="leisure.park" color="207,245,201" fill="1" layer="-2.00" shape="1120.74,248.82 1122.33,267.59 1129.98,285.04 1157.57,298.34 1173.29,298.98 1184.39,294.61 1215.02,303.15 1230.97,304.94 1247.56,318.10 1183.32,385.15 1167.39,384.06 1111.00,343.26 1063.88,305.03 1048.95,295.36 1038.98,285.71 1036.34,282.00 1035.62,274.55 1046.41,255.49 1046.04,254.55 1064.41,221.21 1063.07,220.48 1065.00,216.94 1066.34,217.67 1072.83,205.77 1124.62,119.37 1131.18,109.57 1224.90,169.67 1198.20,202.38 1177.98,194.83 1141.59,200.05 1120.74,248.82"/>
    <poly id="16873207" type="leisure.park" color="207,245,201" fill="1" layer="-2.00" shape="810.07,426.24 849.64,452.31 861.62,455.45 869.09,449.57 910.47,413.41 914.61,407.26 846.06,367.66 810.07,426.24"/>
    <poly id="169988289" type="leisure.pitch" color="207,245,201" fill="1" layer="-2.00" shape="719.43,727.11 729.59,723.18 728.33,719.91 718.16,723.84 719.43,727.11"/>
    <poly id="169988289#1" type="sport.table_tennis" color="79,230,125" fill="1" layer="-2.00" shape="719.43,727.11 729.59,723.18 728.33,719.91 718.16,723.84 719.43,727.11"/>
    <poly id="170013760" type="building.yes" color="255,230,230" fill="1" layer="-1.00" shape="940.14,817.34 950.97,816.74 950.82,811.55 937.82,802.39 933.36,804.31 933.77,804.92 938.59,809.92 940.14,817.34"/>