<?xml version="1.0" encoding="UTF-8"?>

<!-- generated on Sat Dec  8 18:09:54 2018 by SUMO duarouter Version 0.30.0
<?xml version="1.0" encoding="UTF-8"?>

<configuration xmlns:xsi="http://www.w3.org/2001/XMLSchema-instance" xsi:noNamespaceSchemaLocation="http://sumo.dlr.de/xsd/duarouterConfiguration.xsd">

    <input>
        <net-file value="osm.net.xml"/>
        <trip-files value="osm.passenger.trips.xml"/>
    </input>

    <output>
        <output-file value="osm.passenger.rou.xml"/>
    </output>

    <processing>
        <ignore-errors value="true"/>
    </processing>

    <time>
        <begin value="0"/>
        <end value="3600.0"/>
    </time>

    <report>
        <no-warnings value="true"/>
        <no-step-log value="true"/>
    </report>

</configuration>
-->

<routes xmlns:xsi="http://www.w3.org/2001/XMLSchema-instance" xsi:noNamespaceSchemaLocation="http://sumo.dlr.de/xsd/routes_file.xsd">
    <vType id="passenger" vClass="passenger"/>
    <vehicle id="veh0" type="passenger" depart="0.00" departLane="best">
        <route edges="374152381#4 374152381#5 610561277#2 610561277#3 42103967#0 42103967#2 42103967#3 55896222#0 -220648313#3 -220648313#2 -220648313#1 -220648313#0 4403591#1 -374595307 -4677645 169711650#0 -169711650#1"/>
    </vehicle>
    <vehicle id="veh1" type="passenger" depart="4.84" departLane="best">
        <route edges="-447815502#3 447815502#3 598074992 374344534#0 374344534#1 374344540#0 374344540#1 374344538#0 332164871#0 25217541#0 25217541#1 25217541#2 374621843#0 374621843#1 42989675#0 42989675#1 374621845#1 374621845#2 4402642 24700553#1 24700553#2 23899000 34546737#1 147664186 374621841#0 374621841#1 374621841#2 147664176#0 147664176#1 147664176#2 34956511#0 34956511#1 34956511#2 34956511#3 34956511#4 34956511#5 34956511#6 34956511#7 305732881 631641755#0 631641755#1 631641755#2 -4597032#7 -4597032#6 -4597032#4 -4597032#3 -4597032#2 42689935#0 42689935#3 42689935#4 42689935#5 -42732333#4 -42732333#3 -42732333#2 -42732333#1"/>
    </vehicle>
    <vehicle id="veh2" type="passenger" depart="9.68" departLane="best">
        <route edges="42732333#0 42732333#2 42732333#3 42732333#4 -42689935#5 -42689935#4 -42689935#3 -42689935#2 4597032#0 4597032#3 4597032#4 4597032#6 4597032#7 631641755#3 631641755#4 -305732881 -34956511#7 -34956511#6 -34956511#5 -34956511#4 -34956511#3 -34956511#2 -34956511#1 -34956511#0 -147664176#2 -147664176#1 -147664176#0 -374621841#2 -374621841#1 -374621841#0 -147664186 -34546737#1 -23899000 -24700553#2 -24700553#1 -24700553#0 27708236 374621844#0 374621844#1 240526036#0 240526036#1 240526036#2 332164873#0 332164873#1 25217949#1 374344536 374344535#0"/>
    </vehicle>
    <vehicle id="veh3" type="passenger" depart="14.51" departLane="best">
        <route edges="4597055#1 4597055#2 4597055#3 -147664165#2 -147664165#1 -147664165#0 -4597028#2 -4597028#1 -4597028#0 631641755#1 631641755#2 631641755#3 631641755#4 -305732881 -34956511#7 -34956511#6 -34956511#5 -34956511#4 -34956511#3 -34956511#2 -34956511#1 -34956511#0 -147664176#2 -147664176#1 -147664176#0 -374621841#2 -374621841#1 -374621841#0 -147664186 -34546737#1 -23899000 -24700553#2 -24700553#1 -24700553#0"/>
    </vehicle>
    <vehicle id="veh4" type="passenger" depart="19.35" departLane="best">
        <route edges="129104626#3 -129104626#3 -129104626#2 -374621842#4 -374621842#0 -374621840 -53542195 147664176#0 147664176#1 147664176#2 34956511#0 34956511#1 34956511#2 34956511#3 34956511#4 34956511#5 34956511#6 34956511#7 305732881 631641755#0 631641755#1 631641755#2 -4597032#7 -4597032#6 -4597032#4 -4597032#3 -4597032#2 42689935#0 42689935#3 4597039#0 172922877#0 172922877#1 -172922877#1"/>
    </vehicle>
    <vehicle id="veh5" type="passenger" depart="24.19" departLane="best">
        <route edges="-42103967#5 42103967#3 55896222#0 -220648313#3 -220648313#2 -220648313#1 -220648313#0 4403591#1 -374595307 -4677645 -42103710 -4592573#0 -332164877#3 -332164877#2 -28698789#1 185779390#1"/>
    </vehicle>
    <vehicle id="veh6" type="passenger" depart="29.03" departLane="best">
        <route edges="-147664176#2 -147664176#1 -147664176#0 -374621841#2 -374621841#1 -374621841#0 -147664186 -34546737#1 -23899000 -24700553#2 -24700553#1 -24700553#0 27708236 374621844#0 374621844#1 240526036#0 240526036#1 240526036#2 332164873#0 332164873#1 4402657#1 -374344531#4 -374344531#3 -374344531#2 -374344531#1 -374344531#0 -374344532#0 -374344533#1 42103711 4403591#1 -374595307 -4677645 -42103710 -4592573#0 -332164877#3 -332164877#2 -28698789#1 185779390#1 376720436#0 -376720436#0"/>
    </vehicle>
    <vehicle id="veh7" type="passenger" depart="33.86" departLane="best">
        <route edges="374344531#2 374344531#3 374344531#4 4402643 25217541#0 25217541#1 25217541#2 374621843#0 374621843#1 240526036#0"/>
    </vehicle>
    <vehicle id="veh8" type="passenger" depart="38.70" departLane="best">
        <route edges="-42103968#0 -610561277#3 -610561277#2 333607513#0 333607513#1 333607513#2 333607513#3 333607513#4 333607513#5 333607513#6 333607513#7 333607513#8 333607513#10 333607513#11 333607513#12 374152383#0 374152383#1 374152384#0 374152384#1 374152384#2 374152382 182584478#0 374098768#1 374344542#2 374344542#3 374344542#4 374344539#0 374344540#0 374344540#1 374344538#0 332164871#0 25217541#0 25217541#1 25217541#2 374621843#0 374621843#1 42989675#0 42989675#1 374621845#1 374621845#2 4402642 24700553#1 24700553#2 23899000 4396919#0 4396919#2 28789621#0"/>
    </vehicle>
    <vehicle id="veh9" type="passenger" depart="43.54" departLane="best">
        <route edges="4543589#0 4543589#4 374098768#1 374344542#2 374344542#3 374344542#4 374344539#0 374344540#0 374344540#1 374344538#0 332164871#0 25217541#0 25217541#1 25217541#2 374621843#0 374621843#1 42989675#0 42989675#1 374621845#1 374621845#2 4402642 24700553#1 24700553#2 23899000 34546737#1 147664186 374621841#0 374621841#1 374621841#2 -23898998 374621840 374621842#0 374621842#2 129104626#0 129104626#3 -129104626#3"/>
    </vehicle>
    <vehicle id="veh10" type="passenger" depart="48.38" departLane="best">
        <route edges="4543574#5 4543574#6 55896222#0 -220648313#3 -220648313#2 -220648313#1 -220648313#0 4403591#1 -374595307 374595307"/>
    </vehicle>
    <vehicle id="veh11" type="passenger" depart="53.21" departLane="best">
        <route edges="-4597039#1 -4597039#0 -42689935#3 -42689935#2 4597032#0 4597032#3 4597032#4 4597032#6 4597032#7 631641755#3 631641755#4 -305732881 -34956511#7 -34956511#6 -34956511#5 -34956511#4 -34956511#3 -34956511#2 -34956511#1 -34956511#0 -147664176#2 -147664176#1 -147664176#0 -374621841#2 -374621841#1 -374621841#0 -147664186 -34546737#1 -23899000 -24700553#2 -24700553#1 -24700553#0 27708236 374621844#0 374621844#1 240526036#0 240526036#1 240526036#2 332164873#0 332164873#1 25217949#1 374344536 374344535#0 374344535#1 374344535#2 374344535#3 374344535#4 374344535#5 374344535#6 374344535#7 374344535#8 374344535#9 374344535#12 182584477#1 -374152382 -374152384#2 -374152384#1 -374152384#0 -374152383#1 -374098767#3 -374098767#1"/>
    </vehicle>
    <vehicle id="veh12" type="passenger" depart="58.05" departLane="best">
        <route edges="549316653#1 598074991#0 598074991#1 220647519#2 220647519#3 220647519#4 220647519#5 220647519#6 220647519#7 55896222#0 -220648313#3 -220648313#2 -220648313#1 -220648313#0 4403591#1 -374595307 -4677645 169711650#0 481373508#0 481373508#1 -481373508#1"/>
    </vehicle>
    <vehicle id="veh13" type="passenger" depart="62.89" departLane="best">
        <route edges="4596986#2 4596986#3 4596986#4 4596986#5 4596986#6 53542202#2 53542202#3 25693290#0 25693290#1 240526036#0 240526036#1 240526036#2 332164873#0 332164873#1 25217949#1 374344536 374344535#0 374344535#1 374344535#2 374344535#3 374344535#4 374344535#5 374344535#6 374344535#7 374344535#8 374344535#9 374344535#12 182584477#1 -374152382 -374152384#2 -374152384#1 -374152384#0 -374152383#1 -374152383#0 -333607513#12 -333607513#11 -333607513#10 -333607513#8 -333607513#7 -333607513#6 -333607513#5 -333607513#4 -333607513#3 -333607513#2 -333607513#1 333607513#1"/>
    </vehicle>
    <vehicle id="veh14" type="passenger" depart="67.73" departLane="best">
        <route edges="4543574#6 55896222#0 -220648313#3 -220648313#2 -220648313#1 -220648313#0 374595316#0 374344533#0 374344533#2 374344532#1 374344531#1 374344531#2 374344531#3 374344531#4 4402643 25217543#1 25217543#2 377644586#0 25781742#1 25781742#3 377644587#6"/>
    </vehicle>
    <vehicle id="veh15" type="passenger" depart="72.56" departLane="best">
        <route edges="25278674#0 25278674#3 25278674#4 25278674#5 -169459736#1 -4596993 631641755#4 631641755#0 631641755#1 631641755#2 -4597032#7 -4597032#6 551121709#0 551121710"/>
    </vehicle>
    <vehicle id="veh16" type="passenger" depart="77.40" departLane="best">
        <route edges="-53542195 -374621841#2 -374621841#1 -374621841#0 -147664186 -34546737#1 -23899000 -24700553#2 -24700553#1 -24700553#0 27708236 374621844#0 374621844#1 240526036#0 240526036#1 240526036#2 332164873#0 332164873#1 25217543#1 25217543#2 377644586#0 25217948#1 -24700552#1 24700552#1"/>
    </vehicle>
    <vehicle id="veh18" type="passenger" depart="87.08" departLane="best">
        <route edges="4596990#6 24700551#0 24700551#1 24700551#2 24700552#1 25217946#0 25781742#1 25781742#3 25781742#5"/>
    </vehicle>
    <vehicle id="veh19" type="passenger" depart="91.91" departLane="best">
        <route edges="377644582 332164870#0 25217543#1 25217543#2 377644586#0 25781742#1 25781742#3 25781742#5 377644577#1 377644580#0 431306412#0 -175299344"/>
    </vehicle>
    <vehicle id="veh20" type="passenger" depart="96.75" departLane="best">
        <route edges="-42690514#2 -27927583#5 -27927583#4 -27927583#2 -4543954#3 -4543954#0 -4596990#6 -4596990#5 -4596990#4 4596986#0 4596986#1 -4596986#1"/>
    </vehicle>
    <vehicle id="veh21" type="passenger" depart="101.59" departLane="best">
        <route edges="-175299344 431306412#0 188944334#0 188944334#1 188944334#2 188944334#3 36954721#0 36954721#1 36954721#2 36954721#4 25278674#0 25278674#3 25278674#4 25278674#5 -169459736#1 -4596993 631641755#4 631641755#0 4597028#0 4597028#1 4597028#2 147664165#0 147664165#1 147664165#2 42732336#0 42732336#1 -42732336#1"/>
    </vehicle>
    <vehicle id="veh22" type="passenger" depart="106.43" departLane="best">
        <route edges="-23075532#1 -23075532#0 -23075531#0 -4597034#2 -4597034#0 -27927583#5 -27927583#4 -27927583#2 -4543954#3 -4543954#0 24700551#0 24700551#1 24700551#2 24700552#1 25217946#0 377644582 332164870#0 25217949#1 374344536 374344535#0 374344535#1 374344535#2 374344535#3 374344535#4 374344535#5 374344535#6 374344535#7 374344535#8 374344535#9 374344535#12 373996567#1 -53163726#2 -4594805#1"/>
    </vehicle>
    <vehicle id="veh23" type="passenger" depart="111.26" departLane="best">
        <route edges="374152381#1 374152381#2 374152381#3 374152381#4 374152381#5 333607513#0 333607513#1 333607513#2 333607513#3 333607513#4 333607513#5 333607513#6 333607513#7 333607513#8 333607513#10 333607513#11 333607513#12 374152383#0 374152383#1 374152384#0 374152384#1 374152384#2 374152382 182584478#0 374098768#1 374344542#2 374344542#3 374344542#4 374344539#0 374344540#0 374344540#1 374344538#0 332164871#0 25217541#0 25217541#1 25217541#2 374621843#0 374621843#1 42989675#0 42989675#1 374621845#1 374621845#2 4402642 24700553#1 24700553#2 23899000 34546737#1 147664186 374621841#0 374621841#1 374621841#2 -23898998 -53542195"/>
    </vehicle>
    <vehicle id="veh24" type="passenger" depart="116.10" departLane="best">
        <route edges="-53163720#6 -53163720#5 -53163720#4 -53163720#3 -53163720#1 53163714#0 374098768#1 374344542#2 374344542#3 374344542#4 374344539#0 374344540#0 374344540#1 374344538#0 332164871#0 4402657#1 -374344531#4 -374344531#3 -374344531#2 -374344531#1 -374344531#0 -374344532#0 -374344533#1 42103711 4403591#1 -374595307 -4677645 -42103710"/>
    </vehicle>
    <vehicle id="veh25" type="passenger" depart="120.94" departLane="best">
        <route edges="-4396910#2 -4396910#1 -4396910#0 -28789621#1 -28789621#0 -4396919#2 -4396919#0 34546737#1 147664186 374621841#0 374621841#1 374621841#2 -23898998 374621840 374621842#0 374621842#2 52960101 11482839#1 520229610 520229597"/>
    </vehicle>
    <vehicle id="veh26" type="passenger" depart="125.78" departLane="best">
        <route edges="374344531#1 374344531#2 374344531#3 374344531#4 4402643 25217949#1 374344536 374344535#0 374344535#1 374344535#2 374344535#3 374344535#4 374344535#5 374344535#6 374344535#7 374344535#8 374344535#9 374344535#12 182584477#1 -374152382 -374152384#2 -374152384#1 -374152384#0 -374152383#1 -374152383#0 -333607513#12 -333607513#11 -333607513#10 -333607513#8 -333607513#7 -333607513#6 -333607513#5 -333607513#4 -333607513#3 333607513#3"/>
    </vehicle>
    <vehicle id="veh27" type="passenger" depart="130.61" departLane="best">
        <route edges="-36954721#2 -36954721#1 -36954721#0 -24700550 -188944334#2 -188944334#1 -188944334#0 -175299344 377644587#1 377644587#2 377644587#3"/>
    </vehicle>
    <vehicle id="veh28" type="passenger" depart="135.45" departLane="best">
        <route edges="-34956511#3 -34956511#2 -34956511#1 -34956511#0 -147664176#2 -147664176#1 -147664176#0 -374621841#2 -374621841#1 -374621841#0 -147664186 -34546737#1 -23899000 -24700553#2 -24700553#1 -24700553#0 27708236 374621844#0 374621844#1 240526036#0 240526036#1 240526036#2 332164873#0 332164873#1 4402657#1 -374344531#4 -374344531#3 -374344531#2 -374344531#1 -374344531#0 -374344532#0 -374344533#1 42103711 4403591#1 -374595307 -4677645 169711650#0 481373508#0 481373508#1 -55816482#6 -55816482#5 -55816482#4 -55816482#3 -55816482#2"/>
    </vehicle>
    <vehicle id="veh30" type="passenger" depart="145.13" departLane="best">
        <route edges="27708236 374621844#0 374621844#1 240526036#0 240526036#1 240526036#2 332164873#0 332164873#1 25217949#1 374344536 374344535#0 374344535#1 374344535#2 374344535#3 374344535#4 374344535#5 374344535#6"/>
    </vehicle>
    <vehicle id="veh31" type="passenger" depart="149.96" departLane="best">
        <route edges="4596983 4596984 -378331294#0 -24700551#1 -24700551#0 4543954#0 4543954#1 25278674#0 25278674#3 25278674#4 25278674#5 -169459736#1 -4596993 631641755#4 631641755#0 4597028#0 4597028#1 4597028#2 147664165#0 147664165#1 147664165#2 42732336#0 42732336#1 42732336#2 42732336#4 42732336#5 42732336#6 42732336#7 42732336#8 42732336#9"/>
    </vehicle>
    <vehicle id="veh32" type="passenger" depart="154.80" departLane="best">
        <route edges="-42690514#2 4597034#0 4597034#1 4597034#3 23075531#1 23075532#1 175152917#0 175152917#2 42689935#0 42689935#3 42689935#4 42689935#5 -42732333#4 -42732333#3 -42732333#2 172922877#3 -172922877#3"/>
    </vehicle>
    <vehicle id="veh33" type="passenger" depart="159.64" departLane="best">
        <route edges="-4596990#6 -4596990#5 -4596990#4 4596986#0 4596986#1 4596986#2 4596986#3 4596986#4 4596986#5 4596986#6 53542202#2 53542202#3 25693290#0 25693290#1 240526036#0 240526036#1 240526036#2 332164873#0 332164873#1 4402657#1 -374344531#4 -374344531#3 -374344531#2 -374344531#1 -374344531#0 -374344532#0 -374344533#1 42103711 220648313#0 220648313#1 220648313#2 220648313#3 -55896222#2 -4543574#8 -4543574#5 -4543574#4 -4543574#3 -4543574#2"/>
    </vehicle>
    <vehicle id="veh34" type="passenger" depart="164.48" departLane="best">
        <route edges="-376720436#1 -376720436#0 -185779390#1 28698789#0 332164877#0 332164877#3 4677615#1 4592573#1 332164879#0 374595307 374595308 374595316#0 374344533#0 374344533#2 374344532#1 374344531#1 374344531#2 374344531#3 374344531#4 4402643 25217541#0 25217541#1 25217541#2 374621843#0 374621843#1 42989675#0 42989675#1 374621845#1 374621845#2 4402642 24700553#1 24700553#2 23899000 34546737#1 147664186 374621841#0 374621841#1 374621841#2 -23898998 374621840 374621842#0 374621842#2 52960101"/>
    </vehicle>
    <vehicle id="veh35" type="passenger" depart="169.32" departLane="best">
        <route edges="374344533#2 -374344532#0 -374344533#1 42103711 220648313#0 220648313#1 220648313#2 220648313#3 -55896222#2 -42103967#5 -42103967#2 -42103967#1 -610561277#3 -610561277#2 -610561277#1 -610561277#0"/>
    </vehicle>
    <vehicle id="veh36" type="passenger" depart="174.15" departLane="best">
        <route edges="-4396910#2 -4396910#1 -4396910#0 -28789621#1 -28789621#0 -4396919#2 -4396919#0 34546737#1 147664186 374621841#0 374621841#1 374621841#2 -23898998 374621840 374621842#0 374621842#2 -6182767#3 -6182767#0 -4383367#2 -4383367#1"/>
    </vehicle>
    <vehicle id="veh37" type="passenger" depart="178.99" departLane="best">
        <route edges="281073955#0 281073955#1 281073955#2 373996555#0 374098767#0 374098767#3 -374152383#0 -333607513#12 -333607513#11 -333607513#10 -333607513#8 -333607513#7 -333607513#6 -333607513#5 -333607513#4 -333607513#3 -333607513#2 -333607513#1 -333607513#0 610561277#2 610561277#3 -4543570#2 -4543570#1 -4543570#0"/>
    </vehicle>
    <vehicle id="veh38" type="passenger" depart="183.83" departLane="best">
        <route edges="332164877#0 332164877#3 4677615#1 4592573#1 332164879#0 374595307 374595308 374595316#0 374344533#0 374344533#2 374344532#1 374344531#1 374344531#2 374344531#3 374344531#4 4402643 25217541#0 25217541#1 25217541#2 374621843#0 374621843#1 42989675#0 42989675#1 374621845#1 374621845#2 4402642 24700553#1 24700553#2 23899000 34546737#1 147664186 374621841#0 374621841#1 374621841#2 147664176#0 147664176#1 147664176#2 34956511#0 34956511#1 34956511#2 34956511#3 34956511#4 34956511#5 34956511#6 34956511#7 305732881 631641755#0 631641755#1 631641755#2 -4597032#7 -4597032#6 -4597032#4 -4597032#3 -4597032#2 590861828#0 590861828#3 4597033"/>
    </vehicle>
    <vehicle id="veh39" type="passenger" depart="188.67" departLane="best">
        <route edges="-55816482#5 55816482#5 55816482#6 -481373508#1 -481373508#0 -169711650#1 332164879#0 374595307 374595308 374595316#0 374344533#0 374344533#2 374344532#1 374344531#1 374344531#2 374344531#3 374344531#4 4402643 25217541#0 25217541#1 25217541#2 374621843#0 374621843#1 42989675#0 42989675#1 374621845#1 374621845#2 4402642 24700553#1 24700553#2 23899000 34546737#1 147664186 374621841#0 374621841#1 374621841#2 147664176#0 147664176#1 147664176#2 34956511#0 34956511#1 34956511#2 34956511#3 34956511#4 34956511#5 34956511#6 34956511#7 305732881 631641755#0 631641755#1 631641755#2 -4597032#7 -4597032#6 -4597032#4 -4597032#3 -4597032#2 42689935#0 42689935#3 42689935#4 42689935#5 -42689935#5"/>
    </vehicle>
    <vehicle id="veh40" type="passenger" depart="193.50" departLane="best">
        <route edges="631641755#3 4596993 169459736#0 -25278674#6 -25278674#4 -25278674#3 -25278674#2 -36954721#6 -36954721#2 -36954721#1 -36954721#0 -24700550 188944334#3"/>
    </vehicle>
    <vehicle id="veh41" type="passenger" depart="198.34" departLane="best">
        <route edges="-188944334#1 188944334#1 188944334#2 188944334#3 36954721#0 174172052#0 174172052#1 174172052#2 -180021208#1"/>
    </vehicle>
    <vehicle id="veh42" type="passenger" depart="203.18" departLane="best">
        <route edges="-23735661#2 23735661#2 23735661#3 23735661#4 23735661#6 23735661#10 23635726 53543399#0 42989675#0 42989675#1 374621845#1 374621845#2 4402642 24700553#1 24700553#2 23899000 34546737#1 147664186 374621841#0 374621841#1 374621841#2 147664176#0 147664176#1 147664176#2 34956511#0 34956511#1 34956511#2 34956511#3"/>
    </vehicle>
    <vehicle id="veh43" type="passenger" depart="208.02" departLane="best">
        <route edges="4543570#0 4543570#1 4543570#2 -610561277#3 -610561277#2 333607513#0 333607513#1 333607513#2 333607513#3 333607513#4 333607513#5 333607513#6 333607513#7 333607513#8 333607513#10 333607513#11 333607513#12 374152383#0 374152383#1 374152384#0 374152384#1 374152384#2 374152382 182584478#0 374098768#1 374344542#2 374344542#3 374344542#4 374344539#0 374344540#0 374344540#1 374344538#0 332164871#0 25217541#0 25217541#1 25217541#2 374621843#0 374621843#1 42989675#0 42989675#1 374621845#1 374621845#2 4402642 24700553#1 24700553#2 23899000 34546737#1 147664186 374621841#0 374621841#1 374621841#2 147664176#0 147664176#1 147664176#2 34956511#0 34956511#1 34956511#2 34956511#3 34956511#4 34956511#5 34956511#6 34956511#7 305732881 631641755#0 631641755#1 631641755#2 -4597032#7 -4597032#6 -4597032#4 -4597032#3 -4597032#2 42689935#0 42689935#3 42689935#4 42689935#5 119914238#0 119914238#1 119914238#2 119914238#4 119914238#5"/>
    </vehicle>
    <vehicle id="veh44" type="passenger" depart="212.85" departLane="best">
        <route edges="-174172052#1 -174172052#0 -36954721#0 -24700550 -188944334#2 -188944334#1 -188944334#0 -175299344 377644587#1 377644587#2 377644587#3 377644587#6 377644587#8 377644582 332164870#0 4402657#1 -374344531#4 -374344531#3 -374344531#2 -374344531#1 -374344531#0 -374344532#0 -374344533#1 42103711 4403591#1 -374595307 -4677645 169711650#0 481373508#0 481373508#1 -55816482#6 -55816482#5 -55816482#4 -55816482#3 -55816482#2"/>
    </vehicle>
    <vehicle id="veh45" type="passenger" depart="217.69" departLane="best">
        <route edges="631641755#2 -4597032#7 -4597032#6 -4597032#4 -4597032#3 -4597032#2 -175152917#2 -175152917#1 -23075532#1 -23075532#0 23075531#1"/>
    </vehicle>
    <vehicle id="veh46" type="passenger" depart="222.53" departLane="best">
        <route edges="590861828#3 -590861828#3 -590861828#2 -175152917#2 -175152917#1 -23075532#1 -23075532#0 -23075531#0 -4597034#2 -4597034#0 -27927583#5 -27927583#4 -27927583#2 -4543954#3 -4543954#0 24700551#0 24700551#1 24700551#2 24700552#1 25217946#0 25781742#1 4596983"/>
    </vehicle>
    <vehicle id="veh47" type="passenger" depart="227.37" departLane="best">
        <route edges="-129104626#3 -129104626#2 -374621842#4 -374621842#0 -374621840 -53542195 -374621841#2 -374621841#1 -374621841#0 -147664186 -34546737#1 -23899000 -24700553#2 -24700553#1 -24700553#0 27708236 374621844#0 374621844#1 240526036#0 240526036#1 240526036#2 332164873#0 332164873#1 25217543#1 25217543#2 377644586#0 25781742#1 25781742#3 25781742#5 377644577#1"/>
    </vehicle>
    <vehicle id="veh48" type="passenger" depart="232.20" departLane="best">
        <route edges="374595316#0 42103711 4403591#1 -374595307 -4677645 4600239#1 23707866#0 23707866#1 23707866#2 23707866#4 25202591#0 5133264#0 5133264#2 5133264#3 23735661#1"/>
    </vehicle>
    <vehicle id="veh49" type="passenger" depart="237.04" departLane="best">
        <route edges="-4396910#2 -4396910#1 -4396910#0 -28789621#1 -28789621#0 -4396919#2 -4396919#0 -23899000 -24700553#2 -24700553#1 -24700553#0 27708236 374621844#0 374621844#1 240526036#0 240526036#1 240526036#2 332164873#0 332164873#1 25217949#1 374344536 374344535#0 374344535#1 374344535#2 374344535#3 374344535#4 374344535#5 374344535#6 374344535#7 374344535#8 374344535#9 374344535#12 182584477#1 -374152382 -374152384#2 -374152384#1 -374152384#0 -374152383#1 -374098767#3 -374098767#1 373996558#1 373996558#2"/>
    </vehicle>
    <vehicle id="veh50" type="passenger" depart="241.88" departLane="best">
        <route edges="-23735661#5 23735661#4 23735661#6 23735661#10 23635726 53543399#0 42989675#0 42989675#1 374621845#1 374621845#2 4402642 24700553#1 24700553#2 23899000 34546737#1 147664186 374621841#0 374621841#1 374621841#2 147664176#0 147664176#1 147664176#2 34956511#0 34956511#1 34956511#2 34956511#3 34956511#4 34956511#5 34956511#6 34956511#7 305732881 631641755#0 4597028#0 4597028#1 4597028#2 147664165#0 147664165#1"/>
    </vehicle>
    <vehicle id="veh51" type="passenger" depart="246.72" departLane="best">
        <route edges="175152917#0 -175152917#1 -23075532#1 -23075532#0 -23075531#0 -4597034#2 -4597034#0 -27927583#5 -27927583#4 -27927583#2 -4543954#3 -4543954#0 24700551#0 24700551#1 24700551#2 24700552#1 25217946#0 377644582 332164870#0 25217949#1 374344536 374344535#0 374344535#1 374344535#2 374344535#3 374344535#4 374344535#5 374344535#6 374344535#7 374344535#8 374344535#9 374344535#12 53163728#1 53163720#0 53163720#2 53163720#4 53163720#5 53163720#6 53163720#8"/>
    </vehicle>
    <vehicle id="veh52" type="passenger" depart="251.55" departLane="best">
        <route edges="4597029#0 4597029#1 4597029#3 4597055#0 4597055#1 4597055#2 4597055#3 -147664165#2 -147664165#1 -147664165#0 -4597028#2 -4597028#1 -4597028#0 631641755#1 631641755#2 631641755#3 631641755#4 -305732881 -34956511#7 -34956511#6 -34956511#5 -34956511#4 -34956511#3 -34956511#2 -34956511#1 -34956511#0 -147664176#2 -147664176#1 -147664176#0 -374621841#2 -374621841#1 -374621841#0 -147664186 -34546737#1 -23899000 -24700553#2 -24700553#1 -24700553#0 27708236 374621844#0 374621844#1 240526036#0 240526036#1 240526036#2 332164873#0 332164873#1 25217949#1 374344536 374344535#0 374344535#1 374344535#2 374344535#3 374344535#4 374344535#5 374344535#6 374344535#7 374344535#8 374344535#9 374344535#12 182584477#1 -374152382 -374152384#2 -374152384#1 -374152384#0 -374152383#1 -374152383#0 -333607513#12 -333607513#11 -333607513#10 -333607513#8 -333607513#7 -333607513#6 -333607513#5 -333607513#4 -333607513#3 -333607513#2 -333607513#1 -333607513#0 610561277#2 610561277#3 -4543570#2 -4543570#1"/>
    </vehicle>
    <vehicle id="veh53" type="passenger" depart="256.39" departLane="best">
        <route edges="5133252#0 5133252#1 -549316653#1 447815502#3 598074992 374344534#0 374344534#1 374344540#0 374344540#1 374344538#0 332164871#0 25217541#0 25217541#1 25217541#2 374621843#0 374621843#1 4596988#1"/>
    </vehicle>
    <vehicle id="veh54" type="passenger" depart="261.23" departLane="best">
        <route edges="-4594805#5 4594805#5 -53163720#1 53163714#0 182584477#1 -374152382 -374152384#2 -374152384#1 -374152384#0 -374152383#1 -374098767#3 -374098767#1 373996558#1 373996558#2"/>
    </vehicle>
    <vehicle id="veh55" type="passenger" depart="266.07" departLane="best">
        <route edges="34956511#4 -34956511#4 -34956511#3 -34956511#2 -34956511#1 -34956511#0 4596990#0 4596990#1 4596990#2 4596990#3 4596990#4 4596990#5 4596990#6 4543954#0 4543954#1 -36954721#6 -36954721#2 -36954721#1"/>
    </vehicle>
    <vehicle id="veh56" type="passenger" depart="270.90" departLane="best">
        <route edges="431664602 431664597#0 431664597#1 5133264#0 5133264#2 5133264#3 23735661#1 23735661#2"/>
    </vehicle>
    <vehicle id="veh57" type="passenger" depart="275.74" departLane="best">
        <route edges="4396910#0 -4396910#0 -28789621#1 -28789621#0 -4396919#2 -4396919#0 34546737#1 147664186 374621841#0 374621841#1 374621841#2 147664176#0 147664176#1 147664176#2 34956511#0 34956511#1 34956511#2 34956511#3 34956511#4 34956511#5 34956511#6 34956511#7 305732881 631641755#0 631641755#1 631641755#2 -4597032#7 -4597032#6 -4597032#4 -4597032#3 -4597032#2 -175152917#2 -175152917#1 -23075532#1 23075532#1"/>
    </vehicle>
    <vehicle id="veh58" type="passenger" depart="280.58" departLane="best">
        <route edges="-119914238#0 -42689935#5 -42689935#4 -42689935#3 -42689935#2 -175152917#2 -175152917#1 -23075532#1 -23075532#0 -23075531#0 -4597034#2 -4597034#0"/>
    </vehicle>
    <vehicle id="veh59" type="passenger" depart="285.42" departLane="best">
        <route edges="-129104626#6 -129104626#5 -129104626#4 -129104626#3 -129104626#2 -374621842#4 -374621842#0 -374621840 -53542195 -374621841#2 -374621841#1 -374621841#0 -147664186 -34546737#1 -23899000 -24700553#2 -24700553#1 -24700553#0 27708236 374621844#0 374621844#1 240526036#0 240526036#1 240526036#2 332164873#0 332164873#1 25217949#1 374344536 374344535#0 374344535#1 374344535#2 374344535#3 374344535#4 374344535#5 374344535#6 374344535#7 374344535#8 374344535#9 374344542#2 374344542#3 374344542#4 374344539#0 -374344534#1 -374344534#0 -598074992 -447815502#3 549316653#1 -5133252#1 5133252#1"/>
    </vehicle>
    <vehicle id="veh60" type="passenger" depart="290.25" departLane="best">
        <route edges="4597032#0 -4597032#2 -175152917#2 -175152917#1 -23075532#1 -23075532#0 -23075531#0 -4597034#2 -4597034#0 -27927583#5 -27927583#4 -27927583#2 -36954721#6 -36954721#2 -36954721#1 -36954721#0 -24700550 -188944334#2 -188944334#1 -188944334#0 -175299344 42732309#1 4543924"/>
    </vehicle>
    <vehicle id="veh61" type="passenger" depart="295.09" departLane="best">
        <route edges="-4596986#5 -4596986#4 -4596986#3 -4596986#2 -4596986#1 -4596986#0 4596990#4 4596990#5 4596990#6 4543954#0 4543954#1 -36954721#6 -36954721#2 -36954721#1 -36954721#0 -24700550 -188944334#2"/>
    </vehicle>
    <vehicle id="veh62" type="passenger" depart="299.93" departLane="best">
        <route edges="4597029#3 4597055#0 4597055#1 4597055#2 4597055#3 -147664165#2 -147664165#1 -147664165#0 -4597028#2 -4597028#1 -4597028#0 631641755#1 631641755#2 631641755#3 631641755#4 -305732881 -34956511#7 -34956511#6 -34956511#5 -34956511#4 -34956511#3 -34956511#2 -34956511#1 -34956511#0 -147664176#2 -147664176#1 -147664176#0 -374621841#2 -374621841#1 -374621841#0 -147664186 -34546737#1 -23899000 -24700553#2 -24700553#1 -24700553#0 27708236 374621844#0 374621844#1 240526036#0 240526036#1 240526036#2 332164873#0 332164873#1 25217949#1 374344536 374344535#0 374344535#1 374344535#2 374344535#3 374344535#4 374344535#5 374344535#6 374344535#7 374344535#8 374344535#9 374344535#12 53163728#1 53163720#0 53163720#2 53163720#4"/>
    </vehicle>
    <vehicle id="veh63" type="passenger" depart="304.77" departLane="best">
        <route edges="-181468992 -53542202#0 -4596986#5 -4596986#4 -4596986#3 -4596986#2 -4596986#1 -4596986#0 4596994#0 4596994#1 4596994#2 4596994#3 -169459736#1 -4596993 631641755#4 631641755#0 4597028#0 4597028#1 4597028#2 147664165#0 147664165#1 147664165#2 42732336#0 42732336#1 42732336#2 42732336#4 42732336#5 42732336#6 42732336#7 42732336#8 182106933#0 182106933#1 175298126#3 175298126#5 175298126#6"/>
    </vehicle>
    <vehicle id="veh64" type="passenger" depart="309.60" departLane="best">
        <route edges="-175298126#3 -175298126#1 -175298126#0 -172922876 -42732333#4 -42732333#3 42732333#3"/>
    </vehicle>