<?xml version="1.0" encoding="UTF-8"?>

<!-- generated on Sat Dec  8 18:09:52 2018 by SUMO netconvert Version 0.30.0
<?xml version="1.0" encoding="UTF-8"?>

<configuration xmlns:xsi="http://www.w3.org/2001/XMLSchema-instance" xsi:noNamespaceSchemaLocation="http://sumo.dlr.de/xsd/netconvertConfiguration.xsd">

    <input>
        <type-files value="/home/jordan/Downloads/sumo-0.30.0/data/typemap/osmNetconvert.typ.xml"/>
        <osm-files value="osm_bbox.osm.xml"/>
    </input>

    <output>
        <output-file value="/home/jordan/Downloads/sumo-0.30.0/tools/2018-12-08-18-09-47/osm.net.xml"/>
        <output.street-names value="true"/>
        <output.original-names value="true"/>
    </output>

    <projection>
        <proj.utm value="true"/>
    </projection>

    <tls_building>
        <tls.discard-simple value="true"/>
        <tls.join value="true"/>
        <tls.guess-signals value="true"/>
    </tls_building>

    <ramp_guessing>
        <ramps.guess value="true"/>
    </ramp_guessing>

    <processing>
        <geometry.remove value="true"/>
        <roundabouts.guess value="true"/>
        <junctions.join value="true"/>
        <junctions.corner-detail value="5"/>
    </processing>

    <report>
        <verbose value="true"/>
    </report>

</configuration>
-->

<net version="0.27" junctionCornerDetail="5" xmlns:xsi="http://www.w3.org/2001/XMLSchema-instance" xsi:noNamespaceSchemaLocation="http://sumo.dlr.de/xsd/net_file.xsd">

    <location netOffset="-387549.92,-5821021.86" convBoundary="0.00,0.00,3584.95,2294.66" origBoundary="13.320613,52.523057,13.394783,52.548668" projParameter="+proj=utm +zone=33 +ellps=WGS84 +datum=WGS84 +units=m +no_defs"/>

    <type id="highway.bridleway" priority="1" numLanes="1" speed="2.78" allow="pedestrian" oneway="1" width="2.00"/>
    <type id="highway.bus_guideway" priority="1" numLanes="1" speed="8.33" allow="bus" oneway="1"/>
    <type id="highway.cycleway" priority="1" numLanes="1" speed="5.56" allow="bicycle" oneway="0" width="1.00"/>
    <type id="highway.footway" priority="1" numLanes="1" speed="2.78" allow="pedestrian" oneway="1" width="2.00"/>
    <type id="highway.ford" priority="1" numLanes="1" speed="2.78" allow="army" oneway="0"/>
    <type id="highway.living_street" priority="3" numLanes="1" speed="2.78" disallow="tram rail_urban rail rail_electric ship" oneway="0"/>
    <type id="highway.motorway" priority="13" numLanes="2" speed="44.44" allow="private emergency authority army vip passenger hov taxi bus coach delivery truck trailer motorcycle evehicle custom1 custom2" oneway="1"/>
    <type id="highway.motorway_link" priority="12" numLanes="1" speed="22.22" allow="private emergency authority army vip passenger hov taxi bus coach delivery truck trailer motorcycle evehicle custom1 custom2" oneway="1"/>
    <type id="highway.path" priority="1" numLanes="1" speed="2.78" allow="bicycle pedestrian" oneway="1" width="2.00"/>
    <type id="highway.pedestrian" priority="1" numLanes="1" speed="2.78" allow="pedestrian" oneway="1" width="2.00"/>
    <type id="highway.primary" priority="9" numLanes="2" speed="27.78" disallow="tram rail_urban rail rail_electric ship" oneway="0"/>
    <type id="highway.primary_link" priority="8" numLanes="1" speed="22.22" disallow="tram rail_urban rail rail_electric ship" oneway="0"/>
    <type id="highway.raceway" priority="14" numLanes="2" speed="83.33" allow="vip" oneway="0"/>
    <type id="highway.residential" priority="4" numLanes="1" speed="13.89" disallow="tram rail_urban rail rail_electric ship" oneway="0"/>
    <type id="highway.secondary" priority="7" numLanes="2" speed="27.78" disallow="tram rail_urban rail rail_electric ship" oneway="0"/>
    <type id="highway.secondary_link" priority="6" numLanes="1" speed="22.22" disallow="tram rail_urban rail rail_electric ship" oneway="0"/>
    <type id="highway.service" priority="2" numLanes="1" speed="5.56" allow="delivery bicycle pedestrian" oneway="0"/>
    <type id="highway.services" priority="1" numLanes="1" speed="8.33" disallow="tram rail_urban rail rail_electric ship" oneway="0"/>
    <type id="highway.stairs" priority="1" numLanes="1" speed="1.39" allow="pedestrian" oneway="1" width="2.00"/>
    <type id="highway.step" priority="1" numLanes="1" speed="1.39" allow="pedestrian" oneway="1" width="2.00"/>
    <type id="highway.steps" priority="1" numLanes="1" speed="1.39" allow="pedestrian" oneway="1" width="2.00"/>
    <type id="highway.tertiary" priority="6" numLanes="1" speed="22.22" disallow="tram rail_urban rail rail_electric ship" oneway="0"/>
    <type id="highway.tertiary_link" priority="5" numLanes="1" speed="22.22" disallow="tram rail_urban rail rail_electric ship" oneway="0"/>
    <type id="highway.track" priority="1" numLanes="1" speed="5.56" disallow="tram rail_urban rail rail_electric ship" oneway="0"/>
    <type id="highway.trunk" priority="11" numLanes="2" speed="27.78" disallow="tram rail_urban rail rail_electric bicycle pedestrian ship" oneway="0"/>
    <type id="highway.trunk_link" priority="10" numLanes="1" speed="22.22" disallow="tram rail_urban rail rail_electric bicycle pedestrian ship" oneway="0"/>
    <type id="highway.unclassified" priority="5" numLanes="1" speed="13.89" disallow="tram rail_urban rail rail_electric ship" oneway="0"/>
    <type id="highway.unsurfaced" priority="1" numLanes="1" speed="8.33" disallow="tram rail_urban rail rail_electric ship" oneway="0"/>
    <type id="railway.light_rail" priority="15" numLanes="1" speed="27.78" allow="rail_urban" oneway="1"/>
    <type id="railway.preserved" priority="15" numLanes="1" speed="27.78" allow="rail" oneway="1"/>
    <type id="railway.rail" priority="15" numLanes="1" speed="83.33" allow="rail rail_electric" oneway="1"/>
    <type id="railway.subway" priority="15" numLanes="1" speed="27.78" allow="rail_urban" oneway="1"/>
    <type id="railway.tram" priority="15" numLanes="1" speed="13.89" allow="tram" oneway="1"/>

    <edge id=":1187126265_0" function="internal">
        <lane id=":1187126265_0_0" index="0" disallow="tram rail_urban rail rail_electric ship" speed="8.33" length="5.04" shape="1172.15,1308.78 1169.00,1312.71"/>
    </edge>
    <edge id=":1187126265_1" function="internal">
        <lane id=":1187126265_1_0" index="0" disallow="tram rail_urban rail rail_electric ship" speed="8.33" length="4.82" shape="1172.15,1308.78 1170.74,1309.23 1169.83,1309.04 1169.45,1308.20 1169.58,1306.72"/>
    </edge>
    <edge id=":1187126265_2" function="internal">
        <lane id=":1187126265_2_0" index="0" disallow="tram rail_urban rail rail_electric ship" speed="8.33" length="5.02" shape="1166.43,1310.63 1169.58,1306.72"/>
    </edge>
    <edge id=":1187126265_3" function="internal">
        <lane id=":1187126265_3_0" index="0" disallow="tram rail_urban rail rail_electric ship" speed="8.33" length="4.82" shape="1166.43,1310.63 1167.85,1310.19 1168.75,1310.39 1169.13,1311.23 1169.00,1312.71"/>
    </edge>
    <edge id=":1208608753_0" function="internal">
        <lane id=":1208608753_0_0" index="0" allow="delivery bicycle pedestrian" speed="5.56" length="4.82" shape="848.36,1182.40 846.95,1182.85 846.05,1182.66 845.66,1181.83 845.78,1180.35"/>
    </edge>
    <edge id=":1210169986_0" function="internal">
        <lane id=":1210169986_0_0" index="0" disallow="tram rail_urban rail rail_electric ship" speed="8.33" length="4.82" shape="910.71,1792.07 909.28,1792.48 908.38,1792.26 908.02,1791.42 908.19,1789.94"/>
    </edge>
    <edge id=":1210286885_0" function="internal">
        <lane id=":1210286885_0_0" index="0" disallow="tram rail_urban rail rail_electric ship" speed="8.33" length="3.75" shape="1041.74,1733.84 1038.17,1732.71"/>
    </edge>
    <edge id=":1210286885_1" function="internal">
        <lane id=":1210286885_1_0" index="0" disallow="tram rail_urban rail rail_electric ship" speed="8.33" length="2.52" shape="1041.74,1733.84 1040.78,1732.71 1040.61,1731.80 1040.68,1731.72"/>
    </edge>
    <edge id=":1210286885_4" function="internal">
        <lane id=":1210286885_4_0" index="0" speed="8.33" length="2.30" shape="1040.68,1731.72 1041.23,1731.12 1042.64,1730.66"/>
    </edge>
    <edge id=":1210286885_2" function="internal">
        <lane id=":1210286885_2_0" index="0" disallow="tram rail_urban rail rail_electric ship" speed="8.33" length="3.65" shape="1039.17,1729.56 1042.64,1730.66"/>
    </edge>
    <edge id=":1210286885_3" function="internal">
        <lane id=":1210286885_3_0" index="0" disallow="tram rail_urban rail rail_electric ship" speed="8.33" length="2.41" shape="1039.17,1729.56 1040.10,1730.72 1040.24,1731.63"/>
    </edge>
    <edge id=":1210286885_5" function="internal">
        <lane id=":1210286885_5_0" index="0" speed="8.33" length="2.41" shape="1040.24,1731.63 1039.60,1732.29 1038.17,1732.71"/>
    </edge>
    <edge id=":1210287193_0" function="internal">
        <lane id=":1210287193_0_0" index="0" allow="delivery bicycle pedestrian" speed="5.56" length="4.82" shape="1025.16,1754.91 1024.21,1753.76 1024.05,1752.85 1024.69,1752.18 1026.11,1751.75"/>
    </edge>
    <edge id=":1214888187_0" function="internal">
        <lane id=":1214888187_0_0" index="0" disallow="tram rail_urban rail rail_electric ship" speed="8.33" length="4.98" shape="1215.50,1378.75 1211.14,1376.31"/>
        <lane id=":1214888187_0_1" index="1" disallow="tram rail_urban rail rail_electric ship" speed="8.33" length="4.98" shape="1217.10,1375.86 1212.76,1373.44"/>
    </edge>
    <edge id=":1217538564_0" function="internal">
        <lane id=":1217538564_0_0" index="0" allow="delivery bicycle pedestrian" speed="5.56" length="4.82" shape="1409.36,1183.99 1410.75,1183.47 1411.66,1183.61 1412.09,1184.43 1412.04,1185.92"/>
    </edge>
    <edge id=":1222977446_0" function="internal">
        <lane id=":1222977446_0_0" index="0" disallow="tram rail_urban rail rail_electric ship" speed="8.33" length="6.16" shape="916.77,1558.98 910.88,1557.16"/>
    </edge>
    <edge id=":1222977446_1" function="internal">
        <lane id=":1222977446_1_0" index="0" allow="delivery bicycle pedestrian" speed="6.95" length="5.16" shape="916.77,1558.98 914.23,1557.74 912.70,1555.99"/>
    </edge>
    <edge id=":1222977446_2" function="internal">
        <lane id=":1222977446_2_0" index="0" disallow="tram rail_urban rail rail_electric ship" speed="8.33" length="2.41" shape="916.77,1558.98 915.85,1557.81 915.71,1556.90"/>
    </edge>
    <edge id=":1222977446_9" function="internal">
        <lane id=":1222977446_9_0" index="0" speed="6.95" length="5.16" shape="912.70,1555.99 912.16,1553.72 912.64,1550.93"/>
    </edge>
    <edge id=":1222977446_10" function="internal">
        <lane id=":1222977446_10_0" index="0" speed="8.33" length="2.41" shape="915.71,1556.90 916.35,1556.24 917.78,1555.83"/>
    </edge>
    <edge id=":1222977446_3" function="internal">
        <lane id=":1222977446_3_0" index="0" disallow="tram rail_urban rail rail_electric ship" speed="6.95" length="5.00" shape="915.78,1551.94 915.55,1553.29 915.81,1554.39 916.55,1555.23 917.78,1555.83"/>
    </edge>
    <edge id=":1222977446_4" function="internal">
        <lane id=":1222977446_4_0" index="0" disallow="tram rail_urban rail rail_electric ship" speed="6.95" length="7.85" shape="915.78,1551.94 914.75,1554.52 913.59,1556.25 912.30,1557.13 910.88,1557.16"/>
    </edge>
    <edge id=":1222977446_5" function="internal">
        <lane id=":1222977446_5_0" index="0" allow="delivery bicycle pedestrian" speed="5.56" length="4.82" shape="915.78,1551.94 914.62,1552.86 913.71,1553.00 913.05,1552.36 912.64,1550.93"/>
    </edge>
    <edge id=":1222977446_6" function="internal">
        <lane id=":1222977446_6_0" index="0" allow="delivery bicycle pedestrian" speed="6.95" length="3.42" shape="911.53,1553.92 912.07,1553.70 912.33,1552.88 912.47,1551.83 912.64,1550.93"/>
    </edge>
    <edge id=":1222977446_7" function="internal">
        <lane id=":1222977446_7_0" index="0" disallow="tram rail_urban rail rail_electric ship" speed="8.33" length="6.54" shape="911.53,1553.92 917.78,1555.83"/>
    </edge>
    <edge id=":1222977446_8" function="internal">
        <lane id=":1222977446_8_0" index="0" disallow="tram rail_urban rail rail_electric ship" speed="8.33" length="2.64" shape="911.53,1553.92 912.58,1554.97 912.83,1555.87 912.69,1556.04"/>
    </edge>
    <edge id=":1222977446_11" function="internal">
        <lane id=":1222977446_11_0" index="0" speed="8.33" length="2.19" shape="912.69,1556.04 912.26,1556.60 910.88,1557.16"/>
    </edge>
    <edge id=":1223315547_0" function="internal">
        <lane id=":1223315547_0_0" index="0" allow="delivery bicycle pedestrian" speed="5.56" length="4.82" shape="1004.96,1291.42 1004.10,1292.64 1003.26,1293.02 1002.45,1292.59 1001.66,1291.33"/>
    </edge>
    <edge id=":1223610555_0" function="internal">
        <lane id=":1223610555_0_0" index="0" allow="bicycle pedestrian" speed="2.78" length="5.02" width="2.00" shape="1389.27,950.46 1393.55,947.84"/>
    </edge>
    <edge id=":1248013581_0" function="internal">
        <lane id=":1248013581_0_0" index="0" disallow="tram rail_urban rail rail_electric ship" speed="6.95" length="5.41" shape="1233.71,1237.53 1232.68,1236.37 1231.61,1235.94 1230.51,1236.25 1229.36,1237.29"/>
    </edge>
    <edge id=":1248013581_1" function="internal">
        <lane id=":1248013581_1_0" index="0" disallow="tram rail_urban rail rail_electric ship" speed="6.95" length="10.67" shape="1233.71,1237.53 1232.20,1234.68 1231.59,1232.08 1231.88,1229.73 1233.06,1227.63"/>
    </edge>
    <edge id=":1248013581_2" function="internal">
        <lane id=":1248013581_2_0" index="0" allow="delivery bicycle pedestrian" speed="5.56" length="4.82" shape="1233.71,1237.53 1233.72,1236.05 1234.18,1235.25 1235.10,1235.14 1236.47,1235.72"/>
    </edge>
    <edge id=":1248013581_3" function="internal">
        <lane id=":1248013581_3_0" index="0" allow="delivery bicycle pedestrian" speed="6.95" length="6.46" shape="1235.60,1229.74 1235.02,1230.89 1234.97,1232.27 1235.45,1233.88 1236.47,1235.72"/>
    </edge>
    <edge id=":1248013581_4" function="internal">
        <lane id=":1248013581_4_0" index="0" disallow="tram rail_urban rail rail_electric ship" speed="8.33" length="9.80" shape="1235.60,1229.74 1229.36,1237.29"/>
    </edge>
    <edge id=":1248013581_5" function="internal">
        <lane id=":1248013581_5_0" index="0" disallow="tram rail_urban rail rail_electric ship" speed="8.33" length="2.41" shape="1235.60,1229.74 1234.18,1230.17 1233.28,1229.96"/>
    </edge>
    <edge id=":1248013581_9" function="internal">
        <lane id=":1248013581_9_0" index="0" speed="8.33" length="2.41" shape="1233.28,1229.96 1232.91,1229.11 1233.06,1227.63"/>
    </edge>
    <edge id=":1248013581_6" function="internal">
        <lane id=":1248013581_6_0" index="0" disallow="tram rail_urban rail rail_electric ship" speed="8.33" length="9.80" shape="1226.81,1235.19 1233.06,1227.63"/>
    </edge>
    <edge id=":1248013581_7" function="internal">
        <lane id=":1248013581_7_0" index="0" allow="delivery bicycle pedestrian" speed="6.95" length="5.57" shape="1226.81,1235.19 1229.36,1232.87 1231.41,1232.30"/>
    </edge>
    <edge id=":1248013581_8" function="internal">
        <lane id=":1248013581_8_0" index="0" disallow="tram rail_urban rail rail_electric ship" speed="8.33" length="2.41" shape="1226.81,1235.19 1228.24,1234.76 1229.14,1234.97"/>
    </edge>
    <edge id=":1248013581_10" function="internal">
        <lane id=":1248013581_10_0" index="0" speed="6.95" length="6.43" shape="1231.41,1232.30 1231.82,1232.19 1234.19,1233.14 1236.47,1235.72"/>
    </edge>
    <edge id=":1248013581_11" function="internal">
        <lane id=":1248013581_11_0" index="0" speed="8.33" length="2.41" shape="1229.14,1234.97 1229.51,1235.81 1229.36,1237.29"/>
    </edge>
    <edge id=":1248013603_0" function="internal">
        <lane id=":1248013603_0_0" index="0" allow="delivery bicycle pedestrian" speed="5.56" length="4.82" shape="1252.57,1254.12 1252.86,1255.58 1252.57,1256.45 1251.69,1256.74 1250.23,1256.45"/>
    </edge>
    <edge id=":1250134178_0" function="internal">
        <lane id=":1250134178_0_0" index="0" allow="delivery bicycle pedestrian" speed="5.56" length="4.82" shape="944.40,1497.81 945.36,1498.95 945.52,1499.85 944.89,1500.53 943.47,1500.97"/>
    </edge>
    <edge id=":1250139189_0" function="internal">
        <lane id=":1250139189_0_0" index="0" disallow="tram rail_urban rail rail_electric ship" speed="8.33" length="6.55" shape="910.69,1557.11 904.42,1555.22"/>
    </edge>
    <edge id=":1250139189_1" function="internal">
        <lane id=":1250139189_1_0" index="0" allow="delivery bicycle pedestrian" speed="6.95" length="3.28" shape="910.69,1557.11 909.36,1556.33 908.69,1554.87 908.69,1554.74"/>
    </edge>
    <edge id=":1250139189_2" function="internal">
        <lane id=":1250139189_2_0" index="0" disallow="tram rail_urban rail rail_electric ship" speed="8.33" length="2.64" shape="910.69,1557.11 909.63,1556.06 909.39,1555.17 909.53,1554.99"/>
    </edge>
    <edge id=":1250139189_9" function="internal">
        <lane id=":1250139189_9_0" index="0" speed="6.95" length="4.90" shape="908.69,1554.74 908.69,1552.73 909.35,1549.91"/>
    </edge>
    <edge id=":1250139189_10" function="internal">
        <lane id=":1250139189_10_0" index="0" speed="8.33" length="2.19" shape="909.53,1554.99 909.96,1554.44 911.34,1553.87"/>
    </edge>
    <edge id=":1250139189_3" function="internal">
        <lane id=":1250139189_3_0" index="0" disallow="tram rail_urban rail rail_electric ship" speed="6.95" length="3.19" shape="912.49,1550.90 911.34,1553.87"/>
    </edge>
    <edge id=":1250139189_4" function="internal">
        <lane id=":1250139189_4_0" index="0" disallow="tram rail_urban rail rail_electric ship" speed="6.95" length="10.45" shape="912.49,1550.90 911.26,1553.51 909.50,1555.11 907.22,1555.67 904.42,1555.22"/>
    </edge>
    <edge id=":1250139189_5" function="internal">
        <lane id=":1250139189_5_0" index="0" allow="delivery bicycle pedestrian" speed="5.56" length="4.82" shape="912.49,1550.90 911.34,1551.83 910.43,1551.98 909.76,1551.34 909.35,1549.91"/>
    </edge>
    <edge id=":1250139189_6" function="internal">
        <lane id=":1250139189_6_0" index="0" allow="delivery bicycle pedestrian" speed="6.95" length="5.12" shape="905.42,1552.07 906.77,1552.29 907.88,1552.00 908.74,1551.21 909.35,1549.91"/>
    </edge>
    <edge id=":1250139189_7" function="internal">
        <lane id=":1250139189_7_0" index="0" disallow="tram rail_urban rail rail_electric ship" speed="8.33" length="6.19" shape="905.42,1552.07 911.34,1553.87"/>
    </edge>
    <edge id=":1250139189_8" function="internal">
        <lane id=":1250139189_8_0" index="0" disallow="tram rail_urban rail rail_electric ship" speed="8.33" length="2.41" shape="905.42,1552.07 906.35,1553.23 906.49,1554.14"/>
    </edge>
    <edge id=":1250139189_11" function="internal">
        <lane id=":1250139189_11_0" index="0" speed="8.33" length="2.41" shape="906.49,1554.14 905.85,1554.80 904.42,1555.22"/>
    </edge>
    <edge id=":1250139191_0" function="internal">
        <lane id=":1250139191_0_0" index="0" allow="delivery bicycle pedestrian" speed="5.56" length="4.82" shape="921.22,1511.90 922.38,1510.96 923.29,1510.82 923.95,1511.46 924.37,1512.88"/>
    </edge>
    <edge id=":1252399122_0" function="internal">
        <lane id=":1252399122_0_0" index="0" disallow="tram rail_urban rail rail_electric ship" speed="8.33" length="9.50" shape="1253.48,1399.82 1245.16,1395.21"/>
        <lane id=":1252399122_0_1" index="1" disallow="tram rail_urban rail rail_electric ship" speed="8.33" length="9.50" shape="1255.08,1396.93 1246.76,1392.32"/>
    </edge>
    <edge id=":1252399122_2" function="internal">
        <lane id=":1252399122_2_0" index="0" allow="delivery bicycle pedestrian" speed="6.95" length="7.90" shape="1255.08,1396.93 1252.73,1395.41 1251.27,1393.92 1250.68,1392.47 1250.96,1391.05"/>
    </edge>
    <edge id=":1252399122_3" function="internal">
        <lane id=":1252399122_3_0" index="0" disallow="tram rail_urban rail rail_electric ship" speed="6.95" length="7.93" shape="1253.90,1392.56 1252.89,1393.63 1251.37,1393.95 1249.33,1393.51 1246.76,1392.32"/>
    </edge>
    <edge id=":1252399122_4" function="internal">
        <lane id=":1252399122_4_0" index="0" allow="delivery bicycle pedestrian" speed="5.56" length="4.82" shape="1253.90,1392.56 1252.60,1393.29 1251.67,1393.27 1251.13,1392.53 1250.96,1391.05"/>
    </edge>
    <edge id=":1252399124_0" function="internal">
        <lane id=":1252399124_0_0" index="0" allow="delivery bicycle pedestrian" speed="5.56" length="4.82" shape="1276.76,1384.80 1278.07,1384.10 1278.99,1384.13 1279.53,1384.88 1279.67,1386.36"/>
    </edge>
    <edge id=":1252399127_0" function="internal">
        <lane id=":1252399127_0_0" index="0" allow="delivery bicycle pedestrian" speed="6.95" length="5.03" shape="1185.38,1361.80 1184.11,1361.31 1182.98,1361.34 1181.98,1361.91 1181.12,1363.00"/>
    </edge>
    <edge id=":1252399127_1" function="internal">
        <lane id=":1252399127_1_0" index="0" disallow="tram rail_urban rail rail_electric ship" speed="8.33" length="9.46" shape="1185.38,1361.80 1177.15,1357.10"/>
        <lane id=":1252399127_1_1" index="1" disallow="tram rail_urban rail rail_electric ship" speed="8.33" length="9.46" shape="1187.00,1358.92 1178.80,1354.24"/>
    </edge>
    <edge id=":1252399127_3" function="internal">
        <lane id=":1252399127_3_0" index="0" disallow="tram rail_urban rail rail_electric ship" speed="6.95" length="5.00" shape="1178.27,1361.34 1178.79,1360.06 1178.77,1358.94 1178.23,1357.95 1177.15,1357.10"/>
    </edge>
    <edge id=":1252399127_4" function="internal">
        <lane id=":1252399127_4_0" index="0" allow="delivery bicycle pedestrian" speed="5.56" length="4.82" shape="1178.27,1361.34 1179.61,1360.68 1180.53,1360.74 1181.03,1361.51 1181.12,1363.00"/>
    </edge>
    <edge id=":1252399128_0" function="internal">
        <lane id=":1252399128_0_0" index="0" disallow="tram rail_urban rail rail_electric ship" speed="8.33" length="9.45" shape="1270.63,1409.41 1262.42,1404.78"/>
        <lane id=":1252399128_0_1" index="1" disallow="tram rail_urban rail rail_electric ship" speed="8.33" length="9.45" shape="1272.27,1406.55 1264.02,1401.89"/>
    </edge>
    <edge id=":1252399128_2" function="internal">
        <lane id=":1252399128_2_0" index="0" allow="delivery bicycle pedestrian" speed="6.95" length="7.86" shape="1272.27,1406.55 1269.95,1404.99 1268.50,1403.49 1267.93,1402.05 1268.22,1400.66"/>
    </edge>
    <edge id=":1252399128_3" function="internal">
        <lane id=":1252399128_3_0" index="0" disallow="tram rail_urban rail rail_electric ship" speed="6.95" length="7.88" shape="1271.13,1402.22 1270.12,1403.24 1268.60,1403.53 1266.57,1403.08 1264.02,1401.89"/>
    </edge>
    <edge id=":1252399128_4" function="internal">
        <lane id=":1252399128_4_0" index="0" allow="delivery bicycle pedestrian" speed="5.56" length="4.82" shape="1271.13,1402.22 1269.82,1402.92 1268.89,1402.89 1268.36,1402.14 1268.22,1400.66"/>
    </edge>
    <edge id=":1252399129_0" function="internal">
        <lane id=":1252399129_0_0" index="0" allow="delivery bicycle pedestrian" speed="5.56" length="4.82" shape="1259.98,1373.54 1261.28,1372.82 1262.20,1372.83 1262.75,1373.58 1262.92,1375.06"/>
    </edge>
    <edge id=":1302029403_0" function="internal">
        <lane id=":1302029403_0_0" index="0" disallow="tram rail_urban rail rail_electric ship" speed="13.89" length="3.08" shape="949.02,825.02 946.63,823.07"/>
    </edge>
    <edge id=":1302029403_1" function="internal">
        <lane id=":1302029403_1_0" index="0" disallow="tram rail_urban rail rail_electric ship" speed="13.89" length="2.41" shape="949.02,825.02 948.56,823.60 948.75,822.70"/>
    </edge>
    <edge id=":1302029403_6" function="internal">
        <lane id=":1302029403_6_0" index="0" speed="13.89" length="2.41" shape="948.75,822.70 949.58,822.31 951.06,822.42"/>
    </edge>
    <edge id=":1302029403_2" function="internal">
        <lane id=":1302029403_2_0" index="0" disallow="tram rail_urban rail rail_electric ship" speed="13.89" length="3.90" shape="950.88,818.02 955.14,817.24"/>
        <lane id=":1302029403_2_1" index="1" disallow="tram rail_urban rail rail_electric ship" speed="13.89" length="3.90" shape="948.76,820.55 953.10,819.83"/>
        <lane id=":1302029403_2_2" index="2" disallow="tram rail_urban rail rail_electric ship" speed="13.89" length="3.90" shape="948.76,820.55 951.06,822.42"/>
    </edge>
    <edge id=":1302029403_5" function="internal">
        <lane id=":1302029403_5_0" index="0" disallow="tram rail_urban rail rail_electric ship" speed="13.89" length="2.41" shape="948.76,820.55 949.17,821.97 948.96,822.87"/>
    </edge>
    <edge id=":1302029403_7" function="internal">
        <lane id=":1302029403_7_0" index="0" speed="13.89" length="2.41" shape="948.96,822.87 948.11,823.24 946.63,823.07"/>
    </edge>
    <edge id=":1326451034_0" function="internal">
        <lane id=":1326451034_0_0" index="0" disallow="tram rail_urban rail rail_electric ship" speed="13.89" length="5.59" shape="1640.18,1630.92 1635.93,1634.54"/>
        <lane id=":1326451034_0_1" index="1" disallow="tram rail_urban rail rail_electric ship" speed="13.89" length="5.59" shape="1638.05,1628.40 1633.78,1632.04"/>
    </edge>
    <edge id=":1351719073_0" function="internal">
        <lane id=":1351719073_0_0" index="0" allow="delivery bicycle pedestrian" speed="5.56" length="4.82" shape="1052.15,1877.11 1051.77,1875.68 1052.00,1874.79 1052.85,1874.44 1054.33,1874.63"/>
    </edge>
    <edge id=":1361565108_0" function="internal">
        <lane id=":1361565108_0_0" index="0" allow="delivery bicycle pedestrian" speed="5.56" length="4.58" shape="969.34,1895.89 968.17,1895.14 967.11,1894.90 966.17,1895.16 965.34,1895.93"/>
    </edge>
    <edge id=":1361565108_1" function="internal">
        <lane id=":1361565108_1_0" index="0" allow="delivery bicycle pedestrian" speed="5.56" length="9.57" shape="969.34,1895.89 961.80,1889.99"/>
    </edge>
    <edge id=":1361565108_2" function="internal">
        <lane id=":1361565108_2_0" index="0" allow="delivery bicycle pedestrian" speed="5.56" length="4.82" shape="969.34,1895.89 968.90,1894.47 969.11,1893.57 969.95,1893.19 971.43,1893.33"/>
    </edge>
    <edge id=":1361565108_3" function="internal">
        <lane id=":1361565108_3_0" index="0" allow="delivery bicycle pedestrian" speed="5.56" length="9.72" shape="963.78,1887.34 971.43,1893.33"/>
    </edge>
    <edge id=":1361565108_4" function="internal">
        <lane id=":1361565108_4_0" index="0" allow="delivery bicycle pedestrian" speed="5.56" length="9.96" shape="963.78,1887.34 965.81,1889.32 966.74,1891.42 966.59,1893.62 965.34,1895.93"/>
    </edge>
    <edge id=":1361565108_5" function="internal">
        <lane id=":1361565108_5_0" index="0" allow="delivery bicycle pedestrian" speed="5.56" length="4.82" shape="963.78,1887.34 964.27,1888.75 964.11,1889.65 963.29,1890.07 961.80,1889.99"/>
    </edge>
    <edge id=":1361565108_6" function="internal">
        <lane id=":1361565108_6_0" index="0" allow="delivery bicycle pedestrian" speed="5.56" length="4.93" shape="962.47,1894.26 963.11,1893.09 963.21,1891.99 962.78,1890.95 961.80,1889.99"/>
    </edge>
    <edge id=":1361565108_7" function="internal">
        <lane id=":1361565108_7_0" index="0" allow="delivery bicycle pedestrian" speed="5.56" length="10.36" shape="962.47,1894.26 964.48,1892.29 966.64,1891.48 968.96,1891.83 971.43,1893.33"/>
    </edge>
    <edge id=":1361565108_8" function="internal">
        <lane id=":1361565108_8_0" index="0" allow="delivery bicycle pedestrian" speed="5.56" length="4.86" shape="962.47,1894.26 963.81,1893.60 964.74,1893.66 965.25,1894.43 965.34,1895.93"/>
    </edge>
    <edge id=":1361565113_0" function="internal">
        <lane id=":1361565113_0_0" index="0" allow="delivery bicycle pedestrian" speed="5.56" length="4.82" shape="908.22,1920.91 906.80,1921.35 905.90,1921.14 905.52,1920.30 905.67,1918.82"/>
    </edge>
    <edge id=":1361565115_0" function="internal">
        <lane id=":1361565115_0_0" index="0" allow="delivery bicycle pedestrian" speed="5.56" length="4.82" shape="1006.78,1930.97 1007.23,1932.38 1007.03,1933.29 1006.19,1933.67 1004.71,1933.53"/>
    </edge>
    <edge id=":1361565116_0" function="internal">
        <lane id=":1361565116_0_0" index="0" allow="delivery bicycle pedestrian" speed="5.56" length="4.82" shape="940.54,1951.07 939.11,1951.50 938.21,1951.29 937.84,1950.45 938.00,1948.97"/>
    </edge>
    <edge id=":1493332075_0" function="internal">
        <lane id=":1493332075_0_0" index="0" disallow="tram rail_urban rail rail_electric ship" speed="13.89" length="9.54" shape="1701.56,1118.51 1694.47,1112.11"/>
        <lane id=":1493332075_0_1" index="1" disallow="tram rail_urban rail rail_electric ship" speed="13.89" length="9.54" shape="1703.77,1116.06 1696.69,1109.66"/>
    </edge>
    <edge id=":1493332075_2" function="internal">
        <lane id=":1493332075_2_0" index="0" allow="delivery bicycle pedestrian" speed="9.72" length="4.14" shape="1703.77,1116.06 1702.33,1113.93 1702.22,1112.37"/>
    </edge>
    <edge id=":1493332075_3" function="internal">
        <lane id=":1493332075_3_0" index="0" disallow="tram rail_urban rail rail_electric ship" speed="13.89" length="2.41" shape="1703.77,1116.06 1703.40,1114.62 1703.65,1113.73"/>
    </edge>
    <edge id=":1493332075_11" function="internal">
        <lane id=":1493332075_11_0" index="0" speed="9.72" length="8.87" shape="1702.22,1112.37 1702.14,1111.26 1703.18,1108.06 1705.48,1104.31"/>
    </edge>
    <edge id=":1493332075_12" function="internal">
        <lane id=":1493332075_12_0" index="0" speed="13.89" length="2.41" shape="1703.65,1113.73 1704.51,1113.39 1705.98,1113.61"/>
    </edge>