<?xml version="1.0" encoding="UTF-8"?>

<additional xmlns:xsi="http://www.w3.org/2001/XMLSchema-instance" xsi:noNamespaceSchemaLocation="http://sumo.dlr.de/xsd/additional_file.xsd"><poly id="b0" type="building" color="90,102,171" fill="1" layer="-1.00" shape="105,105 395,105 395,395 105,395 105,105"/>
<poly id="b1" type="building" color="90,102,171" fill="1" layer="-1.00" shape="405,105 695,105 695,395 405,395 405,105"/>
<poly id="b2" type="building" color="90,102,171" fill="1" layer="-1.00" shape="705,105 995,105 995,395 705,395 705,105"/>
<poly id="b3" type="building" color="90,102,171" fill="1" layer="-1.00" shape="1005,105 1295,105 1295,395 1005,395 1005,105"/>
<poly id="b4" type="building" color="90,102,171" fill="1" layer="-1.00" shape="1305,105 1595,105 1595,395 1305,395 1305,105"/>
<poly id="b5" type="building" color="90,102,171" fill="1" layer="-1.00" shape="1605,105 1895,105 1895,395 1605,395 1605,105"/>
<poly id="b6" type="building" color="90,102,171" fill="1" layer="-1.00" shape="1905,105 2195,105 2195,395 1905,395 1905,105"/>
<poly id="b7" type="building" color="90,102,171" fill="1" layer="-1.00" shape="2205,105 2495,105 2495,395 2205,395 2205,105"/>
<poly id="b8" type="building" color="90,102,171" fill="1" layer="-1.00" shape="2505,105 2795,105 2795,395 2505,395 2505,105"/>
<poly id="b9" type="building" color="90,102,171" fill="1" layer="-1.00" shape="2805,105 3095,105 3095,395 2805,395 2805,105"/>
<poly id="b10" type="building" color="90,102,171" fill="1" layer="-1.00" shape="3105,105 3395,105 3395,395 3105,395 3105,105"/>
<poly id="b11" type="building" color="90,102,171" fill="1" layer="-1.00" shape="3405,105 3695,105 3695,395 3405,395 3405,105"/>
<poly id="b12" type="building" color="90,102,171" fill="1" layer="-1.00" shape="3705,105 3995,105 3995,395 3705,395 3705,105"/>
<poly id="b13" type="building" color="90,102,171" fill="1" layer="-1.00" shape="4005,105 4295,105 4295,395 4005,395 4005,105"/>
<poly id="b14" type="building" color="90,102,171" fill="1" layer="-1.00" shape="4305,105 4595,105 4595,395 4305,395 4305,105"/>
<poly id="b15" type="building" color="90,102,171" fill="1" layer="-1.00" shape="4605,105 4895,105 4895,395 4605,395 4605,105"/>
<poly id="b16" type="building" color="90,102,171" fill="1" layer="-1.00" shape="105,405 395,405 395,695 105,695 105,405"/>
<poly id="b17" type="building" color="90,102,171" fill="1" layer="-1.00" shape="405,405 695,405 695,695 405,695 405,405"/>
<poly id="b18" type="building" color="90,102,171" fill="1" layer="-1.00" shape="705,405 995,405 995,695 705,695 705,405"/>
<poly id="b19" type="building" color="90,102,171" fill="1" layer="-1.00" shape="1005,405 1295,405 1295,695 1005,695 1005,405"/>
<poly id="b20" type="building" color="90,102,171" fill="1" layer="-1.00" shape="1305,405 1595,405 1595,695 1305,695 1305,405"/>
<poly id="b21" type="building" color="90,102,171" fill="1" layer="-1.00" shape="1605,405 1895,405 1895,695 1605,695 1605,405"/>
<poly id="b22" type="building" color="90,102,171" fill="1" layer="-1.00" shape="1905,405 2195,405 2195,695 1905,695 1905,405"/>
<poly id="b23" type="building" color="90,102,171" fill="1" layer="-1.00" shape="2205,405 2495,405 2495,695 2205,695 2205,405"/>
<poly id="b24" type="building" color="90,102,171" fill="1" layer="-1.00" shape="2505,405 2795,405 2795,695 2505,695 2505,405"/>
<poly id="b25" type="building" color="90,102,171" fill="1" layer="-1.00" shape="2805,405 3095,405 3095,695 2805,695 2805,405"/>
<poly id="b26" type="building" color="90,102,171" fill="1" layer="-1.00" shape="3105,405 3395,405 3395,695 3105,695 3105,405"/>
<poly id="b27" type="building" color="90,102,171" fill="1" layer="-1.00" shape="3405,405 3695,405 3695,695 3405,695 3405,405"/>
<poly id="b28" type="building" color="90,102,171" fill="1" layer="-1.00" shape="3705,405 3995,405 3995,695 3705,695 3705,405"/>
<poly id="b29" type="building" color="90,102,171" fill="1" layer="-1.00" shape="4005,405 4295,405 4295,695 4005,695 4005,405"/>
<poly id="b30" type="building" color="90,102,171" fill="1" layer="-1.00" shape="4305,405 4595,405 4595,695 4305,695 4305,405"/>
<poly id="b31" type="building" color="90,102,171" fill="1" layer="-1.00" shape="4605,405 4895,405 4895,695 4605,695 4605,405"/>
<poly id="b32" type="building" color="90,102,171" fill="1" layer="-1.00" shape="105,705 395,705 395,995 105,995 105,705"/>
<poly id="b33" type="building" color="90,102,171" fill="1" layer="-1.00" shape="405,705 695,705 695,995 405,995 405,705"/>
<poly id="b34" type="building" color="90,102,171" fill="1" layer="-1.00" shape="705,705 995,705 995,995 705,995 705,705"/>
<poly id="b35" type="building" color="90,102,171" fill="1" layer="-1.00" shape="1005,705 1295,705 1295,995 1005,995 1005,705"/>
<poly id="b36" type="building" color="90,102,171" fill="1" layer="-1.00" shape="1305,705 1595,705 1595,995 1305,995 1305,705"/>
<poly id="b37" type="building" color="90,102,171" fill="1" layer="-1.00" shape="1605,705 1895,705 1895,995 1605,995 1605,705"/>
<poly id="b38" type="building" color="90,102,171" fill="1" layer="-1.00" shape="1905,705 2195,705 2195,995 1905,995 1905,705"/>
<poly id="b39" type="building" color="90,102,171" fill="1" layer="-1.00" shape="2205,705 2495,705 2495,995 2205,995 2205,705"/>
<poly id="b40" type="building" color="90,102,171" fill="1" layer="-1.00" shape="2505,705 2795,705 2795,995 2505,995 2505,705"/>
<poly id="b41" type="building" color="90,102,171" fill="1" layer="-1.00" shape="2805,705 3095,705 3095,995 2805,995 2805,705"/>
<poly id="b42" type="building" color="90,102,171" fill="1" layer="-1.00" shape="3105,705 3395,705 3395,995 3105,995 3105,705"/>
<poly id="b43" type="building" color="90,102,171" fill="1" layer="-1.00" shape="3405,705 3695,705 3695,995 3405,995 3405,705"/>
<poly id="b44" type="building" color="90,102,171" fill="1" layer="-1.00" shape="3705,705 3995,705 3995,995 3705,995 3705,705"/>
<poly id="b45" type="building" color="90,102,171" fill="1" layer="-1.00" shape="4005,705 4295,705 4295,995 4005,995 4005,705"/>
<poly id="b46" type="building" color="90,102,171" fill="1" layer="-1.00" shape="4305,705 4595,705 4595,995 4305,995 4305,705"/>
<poly id="b47" type="building" color="90,102,171" fill="1" layer="-1.00" shape="4605,705 4895,705 4895,995 4605,995 4605,705"/>
<poly id="b48" type="building" color="90,102,171" fill="1" layer="-1.00" shape="105,1005 395,1005 395,1295 105,1295 105,1005"/>
<poly id="b49" type="building" color="90,102,171" fill="1" layer="-1.00" shape="405,1005 695,1005 695,1295 405,1295 405,1005"/>
<poly id="b50" type="building" color="90,102,171" fill="1" layer="-1.00" shape="705,1005 995,1005 995,1295 705,1295 705,1005"/>
<poly id="b51" type="building" color="90,102,171" fill="1" layer="-1.00" shape="1005,1005 1295,1005 1295,1295 1005,1295 1005,1005"/>
<poly id="b52" type="building" color="90,102,171" fill="1" layer="-1.00" shape="1305,1005 1595,1005 1595,1295 1305,1295 1305,1005"/>
<poly id="b53" type="building" color="90,102,171" fill="1" layer="-1.00" shape="1605,1005 1895,1005 1895,1295 1605,1295 1605,1005"/>
<poly id="b54" type="building" color="90,102,171" fill="1" layer="-1.00" shape="1905,1005 2195,1005 2195,1295 1905,1295 1905,1005"/>
<poly id="b55" type="building" color="90,102,171" fill="1" layer="-1.00" shape="2205,1005 2495,1005 2495,1295 2205,1295 2205,1005"/>
<poly id="b56" type="building" color="90,102,171" fill="1" layer="-1.00" shape="2505,1005 2795,1005 2795,1295 2505,1295 2505,1005"/>
<poly id="b57" type="building" color="90,102,171" fill="1" layer="-1.00" shape="2805,1005 3095,1005 3095,1295 2805,1295 2805,1005"/>
<poly id="b58" type="building" color="90,102,171" fill="1" layer="-1.00" shape="3105,1005 3395,1005 3395,1295 3105,1295 3105,1005"/>
<poly id="b59" type="building" color="90,102,171" fill="1" layer="-1.00" shape="3405,1005 3695,1005 3695,1295 3405,1295 3405,1005"/>
<poly id="b60" type="building" color="90,102,171" fill="1" layer="-1.00" shape="3705,1005 3995,1005 3995,1295 3705,1295 3705,1005"/>
<poly id="b61" type="building" color="90,102,171" fill="1" layer="-1.00" shape="4005,1005 4295,1005 4295,1295 4005,1295 4005,1005"/>
<poly id="b62" type="building" color="90,102,171" fill="1" layer="-1.00" shape="4305,1005 4595,1005 4595,1295 4305,1295 4305,1005"/>
<poly id="b63" type="building" color="90,102,171" fill="1" layer="-1.00" shape="4605,1005 4895,1005 4895,1295 4605,1295 4605,1005"/>
<poly id="b64" type="building" color="90,102,171" fill="1" layer="-1.00" shape="105,1305 395,1305 395,1595 105,1595 105,1305"/>
<poly id="b65" type="building" color="90,102,171" fill="1" layer="-1.00" shape="405,1305 695,1305 695,1595 405,1595 405,1305"/>
<poly id="b66" type="building" color="90,102,171" fill="1" layer="-1.00" shape="705,1305 995,1305 995,1595 705,1595 705,1305"/>
<poly id="b67" type="building" color="90,102,171" fill="1" layer="-1.00" shape="1005,1305 1295,1305 1295,1595 1005,1595 1005,1305"/>
<poly id="b68" type="building" color="90,102,171" fill="1" layer="-1.00" shape="1305,1305 1595,1305 1595,1595 1305,1595 1305,1305"/>
<poly id="b69" type="building" color="90,102,171" fill="1" layer="-1.00" shape="1605,1305 1895,1305 1895,1595 1605,1595 1605,1305"/>
<poly id="b70" type="building" color="90,102,171" fill="1" layer="-1.00" shape="1905,1305 2195,1305 2195,1595 1905,1595 1905,1305"/>
<poly id="b71" type="building" color="90,102,171" fill="1" layer="-1.00" shape="2205,1305 2495,1305 2495,1595 2205,1595 2205,1305"/>
<poly id="b72" type="building" color="90,102,171" fill="1" layer="-1.00" shape="2505,1305 2795,1305 2795,1595 2505,1595 2505,1305"/>
<poly id="b73" type="building" color="90,102,171" fill="1" layer="-1.00" shape="2805,1305 3095,1305 3095,1595 2805,1595 2805,1305"/>
<poly id="b74" type="building" color="90,102,171" fill="1" layer="-1.00" shape="3105,1305 3395,1305 3395,1595 3105,1595 3105,1305"/>
<poly id="b75" type="building" color="90,102,171" fill="1" layer="-1.00" shape="3405,1305 3695,1305 3695,1595 3405,1595 3405,1305"/>
<poly id="b76" type="building" color="90,102,171" fill="1" layer="-1.00" shape="3705,1305 3995,1305 3995,1595 3705,1595 3705,1305"/>
<poly id="b77" type="building" color="90,102,171" fill="1" layer="-1.00" shape="4005,1305 4295,1305 4295,1595 4005,1595 4005,1305"/>
<poly id="b78" type="building" color="90,102,171" fill="1" layer="-1.00" shape="4305,1305 4595,1305 4595,1595 4305,1595 4305,1305"/>
<poly id="b79" type="building" color="90,102,171" fill="1" layer="-1.00" shape="4605,1305 4895,1305 4895,1595 4605,1595 4605,1305"/>
<poly id="b80" type="building" color="90,102,171" fill="1" layer="-1.00" shape="105,1605 395,1605 395,1895 105,1895 105,1605"/>
<poly id="b81" type="building" color="90,102,171" fill="1" layer="-1.00" shape="405,1605 695,1605 695,1895 405,1895 405,1605"/>
<poly id="b82" type="building" color="90,102,171" fill="1" layer="-1.00" shape="705,1605 995,1605 995,1895 705,1895 705,1605"/>
<poly id="b83" type="building" color="90,102,171" fill="1" layer="-1.00" shape="1005,1605 1295,1605 1295,1895 1005,1895 1005,1605"/>
<poly id="b84" type="building" color="90,102,171" fill="1" layer="-1.00" shape="1305,1605 1595,1605 1595,1895 1305,1895 1305,1605"/>
<poly id="b85" type="building" color="90,102,171" fill="1" layer="-1.00" shape="1605,1605 1895,1605 1895,1895 1605,1895 1605,1605"/>
<poly id="b86" type="building" color="90,102,171" fill="1" layer="-1.00" shape="1905,1605 2195,1605 2195,1895 1905,1895 1905,1605"/>
<poly id="b87" type="building" color="90,102,171" fill="1" layer="-1.00" shape="2205,1605 2495,1605 2495,1895 2205,1895 2205,1605"/>
<poly id="b88" type="building" color="90,102,171" fill="1" layer="-1.00" shape="2505,1605 2795,1605 2795,1895 2505,1895 2505,1605"/>
<poly id="b89" type="building" color="90,102,171" fill="1" layer="-1.00" shape="2805,1605 3095,1605 3095,1895 2805,1895 2805,1605"/>
<poly id="b90" type="building" color="90,102,171" fill="1" layer="-1.00" shape="3105,1605 3395,1605 3395,1895 3105,1895 3105,1605"/>
<poly id="b91" type="building" color="90,102,171" fill="1" layer="-1.00" shape="3405,1605 3695,1605 3695,1895 3405,1895 3405,1605"/>
<poly id="b92" type="building" color="90,102,171" fill="1" layer="-1.00" shape="3705,1605 3995,1605 3995,1895 3705,1895 3705,1605"/>
<poly id="b93" type="building" color="90,102,171" fill="1" layer="-1.00" shape="4005,1605 4295,1605 4295,1895 4005,1895 4005,1605"/>
<poly id="b94" type="building" color="90,102,171" fill="1" layer="-1.00" shape="4305,1605 4595,1605 4595,1895 4305,1895 4305,1605"/>
<poly id="b95" type="building" color="90,102,171" fill="1" layer="-1.00" shape="4605,1605 4895,1605 4895,1895 4605,1895 4605,1605"/>
<poly id="b96" type="building" color="90,102,171" fill="1" layer="-1.00" shape="105,1905 395,1905 395,2195 105,2195 105,1905"/>
<poly id="b97" type="building" color="90,102,171" fill="1" layer="-1.00" shape="405,1905 695,1905 695,2195 405,2195 405,1905"/>
<poly id="b98" type="building" color="90,102,171" fill="1" layer="-1.00" shape="705,1905 995,1905 995,2195 705,2195 705,1905"/>
<poly id="b99" type="building" color="90,102,171" fill="1" layer="-1.00" shape="1005,1905 1295,1905 1295,2195 1005,2195 1005,1905"/>
<poly id="b100" type="building" color="90,102,171" fill="1" layer="-1.00" shape="1305,1905 1595,1905 1595,2195 1305,2195 1305,1905"/>
<poly id="b101" type="building" color="90,102,171" fill="1" layer="-1.00" shape="1605,1905 1895,1905 1895,2195 1605,2195 1605,1905"/>
<poly id="b102" type="building" color="90,102,171" fill="1" layer="-1.00" shape="1905,1905 2195,1905 2195,2195 1905,2195 1905,1905"/>
<poly id="b103" type="building" color="90,102,171" fill="1" layer="-1.00" shape="2205,1905 2495,1905 2495,2195 2205,2195 2205,1905"/>
<poly id="b104" type="building" color="90,102,171" fill="1" layer="-1.00" shape="2505,1905 2795,1905 2795,2195 2505,2195 2505,1905"/>
<poly id="b105" type="building" color="90,102,171" fill="1" layer="-1.00" shape="2805,1905 3095,1905 3095,2195 2805,2195 2805,1905"/>
<poly id="b106" type="building" color="90,102,171" fill="1" layer="-1.00" shape="3105,1905 3395,1905 3395,2195 3105,2195 3105,1905"/>
<poly id="b107" type="building" color="90,102,171" fill="1" layer="-1.00" shape="3405,1905 3695,1905 3695,2195 3405,2195 3405,1905"/>
<poly id="b108" type="building" color="90,102,171" fill="1" layer="-1.00" shape="3705,1905 3995,1905 3995,2195 3705,2195 3705,1905"/>
<poly id="b109" type="building" color="90,102,171" fill="1" layer="-1.00" shape="4005,1905 4295,1905 4295,2195 4005,2195 4005,1905"/>
<poly id="b110" type="building" color="90,102,171" fill="1" layer="-1.00" shape="4305,1905 4595,1905 4595,2195 4305,2195 4305,1905"/>
<poly id="b111" type="building" color="90,102,171" fill="1" layer="-1.00" shape="4605,1905 4895,1905 4895,2195 4605,2195 4605,1905"/>
<poly id="b112" type="building" color="90,102,171" fill="1" layer="-1.00" shape="105,2205 395,2205 395,2495 105,2495 105,2205"/>
<poly id="b113" type="building" color="90,102,171" fill="1" layer="-1.00" shape="405,2205 695,2205 695,2495 405,2495 405,2205"/>
<poly id="b114" type="building" color="90,102,171" fill="1" layer="-1.00" shape="705,2205 995,2205 995,2495 705,2495 705,2205"/>
<poly id="b115" type="building" color="90,102,171" fill="1" layer="-1.00" shape="1005,2205 1295,2205 1295,2495 1005,2495 1005,2205"/>
<poly id="b116" type="building" color="90,102,171" fill="1" layer="-1.00" shape="1305,2205 1595,2205 1595,2495 1305,2495 1305,2205"/>
<poly id="b117" type="building" color="90,102,171" fill="1" layer="-1.00" shape="1605,2205 1895,2205 1895,2495 1605,2495 1605,2205"/>
<poly id="b118" type="building" color="90,102,171" fill="1" layer="-1.00" shape="1905,2205 2195,2205 2195,2495 1905,2495 1905,2205"/>
<poly id="b119" type="building" color="90,102,171" fill="1" layer="-1.00" shape="2205,2205 2495,2205 2495,2495 2205,2495 2205,2205"/>
<poly id="b120" type="building" color="90,102,171" fill="1" layer="-1.00" shape="2505,2205 2795,2205 2795,2495 2505,2495 2505,2205"/>
<poly id="b121" type="building" color="90,102,171" fill="1" layer="-1.00" shape="2805,2205 3095,2205 3095,2495 2805,2495 2805,2205"/>
<poly id="b122" type="building" color="90,102,171" fill="1" layer="-1.00" shape="3105,2205 3395,2205 3395,2495 3105,2495 3105,2205"/>
<poly id="b123" type="building" color="90,102,171" fill="1" layer="-1.00" shape="3405,2205 3695,2205 3695,2495 3405,2495 3405,2205"/>
<poly id="b124" type="building" color="90,102,171" fill="1" layer="-1.00" shape="3705,2205 3995,2205 3995,2495 3705,2495 3705,2205"/>
<poly id="b125" type="building" color="90,102,171" fill="1" layer="-1.00" shape="4005,2205 4295,2205 4295,2495 4005,2495 4005,2205"/>
<poly id="b126" type="building" color="90,102,171" fill="1" layer="-1.00" shape="4305,2205 4595,2205 4595,2495 4305,2495 4305,2205"/>
<poly id="b127" type="building" color="90,102,171" fill="1" layer="-1.00" shape="4605,2205 4895,2205 4895,2495 4605,2495 4605,2205"/>
<poly id="b128" type="building" color="90,102,171" fill="1" layer="-1.00" shape="105,2505 395,2505 395,2795 105,2795 105,2505"/>
<poly id="b129" type="building" color="90,102,171" fill="1" layer="-1.00" shape="405,2505 695,2505 695,2795 405,2795 405,2505"/>
<poly id="b130" type="building" color="90,102,171" fill="1" layer="-1.00" shape="705,2505 995,2505 995,2795 705,2795 705,2505"/>
<poly id="b131" type="building" color="90,102,171" fill="1" layer="-1.00" shape="1005,2505 1295,2505 1295,2795 1005,2795 1005,2505"/>
<poly id="b132" type="building" color="90,102,171" fill="1" layer="-1.00" shape="1305,2505 1595,2505 1595,2795 1305,2795 1305,2505"/>
<poly id="b133" type="building" color="90,102,171" fill="1" layer="-1.00" shape="1605,2505 1895,2505 1895,2795 1605,2795 1605,2505"/>
<poly id="b134" type="building" color="90,102,171" fill="1" layer="-1.00" shape="1905,2505 2195,2505 2195,2795 1905,2795 1905,2505"/>
<poly id="b135" type="building" color="90,102,171" fill="1" layer="-1.00" shape="2205,2505 2495,2505 2495,2795 2205,2795 2205,2505"/>
<poly id="b136" type="building" color="90,102,171" fill="1" layer="-1.00" shape="2505,2505 2795,2505 2795,2795 2505,2795 2505,2505"/>
<poly id="b137" type="building" color="90,102,171" fill="1" layer="-1.00" shape="2805,2505 3095,2505 3095,2795 2805,2795 2805,2505"/>
<poly id="b138" type="building" color="90,102,171" fill="1" layer="-1.00" shape="3105,2505 3395,2505 3395,2795 3105,2795 3105,2505"/>
<poly id="b139" type="building" color="90,102,171" fill="1" layer="-1.00" shape="3405,2505 3695,2505 3695,2795 3405,2795 3405,2505"/>
<poly id="b140" type="building" color="90,102,171" fill="1" layer="-1.00" shape="3705,2505 3995,2505 3995,2795 3705,2795 3705,2505"/>
<poly id="b141" type="building" color="90,102,171" fill="1" layer="-1.00" shape="4005,2505 4295,2505 4295,2795 4005,2795 4005,2505"/>
<poly id="b142" type="building" color="90,102,171" fill="1" layer="-1.00" shape="4305,2505 4595,2505 4595,2795 4305,2795 4305,2505"/>
<poly id="b143" type="building" color="90,102,171" fill="1" layer="-1.00" shape="4605,2505 4895,2505 4895,2795 4605,2795 4605,2505"/>
<poly id="b144" type="building" color="90,102,171" fill="1" layer="-1.00" shape="105,2805 395,2805 395,3095 105,3095 105,2805"/>
<poly id="b145" type="building" color="90,102,171" fill="1" layer="-1.00" shape="405,2805 695,2805 695,3095 405,3095 405,2805"/>
<poly id="b146" type="building" color="90,102,171" fill="1" layer="-1.00" shape="705,2805 995,2805 995,3095 705,3095 705,2805"/>
<poly id="b147" type="building" color="90,102,171" fill="1" layer="-1.00" shape="1005,2805 1295,2805 1295,3095 1005,3095 1005,2805"/>
<poly id="b148" type="building" color="90,102,171" fill="1" layer="-1.00" shape="1305,2805 1595,2805 1595,3095 1305,3095 1305,2805"/>
<poly id="b149" type="building" color="90,102,171" fill="1" layer="-1.00" shape="1605,2805 1895,2805 1895,3095 1605,3095 1605,2805"/>
<poly id="b150" type="building" color="90,102,171" fill="1" layer="-1.00" shape="1905,2805 2195,2805 2195,3095 1905,3095 1905,2805"/>
<poly id="b151" type="building" color="90,102,171" fill="1" layer="-1.00" shape="2205,2805 2495,2805 2495,3095 2205,3095 2205,2805"/>
<poly id="b152" type="building" color="90,102,171" fill="1" layer="-1.00" shape="2505,2805 2795,2805 2795,3095 2505,3095 2505,2805"/>
<poly id="b153" type="building" color="90,102,171" fill="1" layer="-1.00" shape="2805,2805 3095,2805 3095,3095 2805,3095 2805,2805"/>
<poly id="b154" type="building" color="90,102,171" fill="1" layer="-1.00" shape="3105,2805 3395,2805 3395,3095 3105,3095 3105,2805"/>
<poly id="b155" type="building" color="90,102,171" fill="1" layer="-1.00" shape="3405,2805 3695,2805 3695,3095 3405,3095 3405,2805"/>
<poly id="b156" type="building" color="90,102,171" fill="1" layer="-1.00" shape="3705,2805 3995,2805 3995,3095 3705,3095 3705,2805"/>
<poly id="b157" type="building" color="90,102,171" fill="1" layer="-1.00" shape="4005,2805 4295,2805 4295,3095 4005,3095 4005,2805"/>
<poly id="b158" type="building" color="90,102,171" fill="1" layer="-1.00" shape="4305,2805 4595,2805 4595,3095 4305,3095 4305,2805"/>
<poly id="b159" type="building" color="90,102,171" fill="1" layer="-1.00" shape="4605,2805 4895,2805 4895,3095 4605,3095 4605,2805"/>
<poly id="b160" type="building" color="90,102,171" fill="1" layer="-1.00" shape="105,3105 395,3105 395,3395 105,3395 105,3105"/>
<poly id="b161" type="building" color="90,102,171" fill="1" layer="-1.00" shape="405,3105 695,3105 695,3395 405,3395 405,3105"/>
<poly id="b162" type="building" color="90,102,171" fill="1" layer="-1.00" shape="705,3105 995,3105 995,3395 705,3395 705,3105"/>
<poly id="b163" type="building" color="90,102,171" fill="1" layer="-1.00" shape="1005,3105 1295,3105 1295,3395 1005,3395 1005,3105"/>
<poly id="b164" type="building" color="90,102,171" fill="1" layer="-1.00" shape="1305,3105 1595,3105 1595,3395 1305,3395 1305,3105"/>
<poly id="b165" type="building" color="90,102,171" fill="1" layer="-1.00" shape="1605,3105 1895,3105 1895,3395 1605,3395 1605,3105"/>
<poly id="b166" type="building" color="90,102,171" fill="1" layer="-1.00" shape="1905,3105 2195,3105 2195,3395 1905,3395 1905,3105"/>
<poly id="b167" type="building" color="90,102,171" fill="1" layer="-1.00" shape="2205,3105 2495,3105 2495,3395 2205,3395 2205,3105"/>
<poly id="b168" type="building" color="90,102,171" fill="1" layer="-1.00" shape="2505,3105 2795,3105 2795,3395 2505,3395 2505,3105"/>
<poly id="b169" type="building" color="90,102,171" fill="1" layer="-1.00" shape="2805,3105 3095,3105 3095,3395 2805,3395 2805,3105"/>
<poly id="b170" type="building" color="90,102,171" fill="1" layer="-1.00" shape="3105,3105 3395,3105 3395,3395 3105,3395 3105,3105"/>
<poly id="b171" type="building" color="90,102,171" fill="1" layer="-1.00" shape="3405,3105 3695,3105 3695,3395 3405,3395 3405,3105"/>
<poly id="b172" type="building" color="90,102,171" fill="1" layer="-1.00" shape="3705,3105 3995,3105 3995,3395 3705,3395 3705,3105"/>
<poly id="b173" type="building" color="90,102,171" fill="1" layer="-1.00" shape="4005,3105 4295,3105 4295,3395 4005,3395 4005,3105"/>
<poly id="b174" type="building" color="90,102,171" fill="1" layer="-1.00" shape="4305,3105 4595,3105 4595,3395 4305,3395 4305,3105"/>
<poly id="b175" type="building" color="90,102,171" fill="1" layer="-1.00" shape="4605,3105 4895,3105 4895,3395 4605,3395 4605,3105"/>
<poly id="b176" type="building" color="90,102,171" fill="1" layer="-1.00" shape="105,3405 395,3405 395,3695 105,3695 105,3405"/>
<poly id="b177" type="building" color="90,102,171" fill="1" layer="-1.00" shape="405,3405 695,3405 695,3695 405,3695 405,3405"/>
<poly id="b178" type="building" color="90,102,171" fill="1" layer="-1.00" shape="705,3405 995,3405 995,3695 705,3695 705,3405"/>
<poly id="b179" type="building" color="90,102,171" fill="1" layer="-1.00" shape="1005,3405 1295,3405 1295,3695 1005,3695 1005,3405"/>
<poly id="b180" type="building" color="90,102,171" fill="1" layer="-1.00" shape="1305,3405 1595,3405 1595,3695 1305,3695 1305,3405"/>
<poly id="b181" type="building" color="90,102,171" fill="1" layer="-1.00" shape="1605,3405 1895,3405 1895,3695 1605,3695 1605,3405"/>
<poly id="b182" type="building" color="90,102,171" fill="1" layer="-1.00" shape="1905,3405 2195,3405 2195,3695 1905,3695 1905,3405"/>
<poly id="b183" type="building" color="90,102,171" fill="1" layer="-1.00" shape="2205,3405 2495,3405 2495,3695 2205,3695 2205,3405"/>
<poly id="b184" type="building" color="90,102,171" fill="1" layer="-1.00" shape="2505,3405 2795,3405 2795,3695 2505,3695 2505,3405"/>
<poly id="b185" type="building" color="90,102,171" fill="1" layer="-1.00" shape="2805,3405 3095,3405 3095,3695 2805,3695 2805,3405"/>
<poly id="b186" type="building" color="90,102,171" fill="1" layer="-1.00" shape="3105,3405 3395,3405 3395,3695 3105,3695 3105,3405"/>
<poly id="b187" type="building" color="90,102,171" fill="1" layer="-1.00" shape="3405,3405 3695,3405 3695,3695 3405,3695 3405,3405"/>
<poly id="b188" type="building" color="90,102,171" fill="1" layer="-1.00" shape="3705,3405 3995,3405 3995,3695 3705,3695 3705,3405"/>
<poly id="b189" type="building" color="90,102,171" fill="1" layer="-1.00" shape="4005,3405 4295,3405 4295,3695 4005,3695 4005,3405"/>
<poly id="b190" type="building" color="90,102,171" fill="1" layer="-1.00" shape="4305,3405 4595,3405 4595,3695 4305,3695 4305,3405"/>
<poly id="b191" type="building" color="90,102,171" fill="1" layer="-1.00" shape="4605,3405 4895,3405 4895,3695 4605,3695 4605,3405"/>
<poly id="b192" type="building" color="90,102,171" fill="1" layer="-1.00" shape="105,3705 395,3705 395,3995 105,3995 105,3705"/>
<poly id="b193" type="building" color="90,102,171" fill="1" layer="-1.00" shape="405,3705 695,3705 695,3995 405,3995 405,3705"/>
<poly id="b194" type="building" color="90,102,171" fill="1" layer="-1.00" shape="705,3705 995,3705 995,3995 705,3995 705,3705"/>
<poly id="b195" type="building" color="90,102,171" fill="1" layer="-1.00" shape="1005,3705 1295,3705 1295,3995 1005,3995 1005,3705"/>
<poly id="b196" type="building" color="90,102,171" fill="1" layer="-1.00" shape="1305,3705 1595,3705 1595,3995 1305,3995 1305,3705"/>
<poly id="b197" type="building" color="90,102,171" fill="1" layer="-1.00" shape="1605,3705 1895,3705 1895,3995 1605,3995 1605,3705"/>
<poly id="b198" type="building" color="90,102,171" fill="1" layer="-1.00" shape="1905,3705 2195,3705 2195,3995 1905,3995 1905,3705"/>
<poly id="b199" type="building" color="90,102,171" fill="1" layer="-1.00" shape="2205,3705 2495,3705 2495,3995 2205,3995 2205,3705"/>
<poly id="b200" type="building" color="90,102,171" fill="1" layer="-1.00" shape="2505,3705 2795,3705 2795,3995 2505,3995 2505,3705"/>
<poly id="b201" type="building" color="90,102,171" fill="1" layer="-1.00" shape="2805,3705 3095,3705 3095,3995 2805,3995 2805,3705"/>
<poly id="b202" type="building" color="90,102,171" fill="1" layer="-1.00" shape="3105,3705 3395,3705 3395,3995 3105,3995 3105,3705"/>
<poly id="b203" type="building" color="90,102,171" fill="1" layer="-1.00" shape="3405,3705 3695,3705 3695,3995 3405,3995 3405,3705"/>
<poly id="b204" type="building" color="90,102,171" fill="1" layer="-1.00" shape="3705,3705 3995,3705 3995,3995 3705,3995 3705,3705"/>
<poly id="b205" type="building" color="90,102,171" fill="1" layer="-1.00" shape="4005,3705 4295,3705 4295,3995 4005,3995 4005,3705"/>
<poly id="b206" type="building" color="90,102,171" fill="1" layer="-1.00" shape="4305,3705 4595,3705 4595,3995 4305,3995 4305,3705"/>
<poly id="b207" type="building" color="90,102,171" fill="1" layer="-1.00" shape="4605,3705 4895,3705 4895,3995 4605,3995 4605,3705"/>
<poly id="b208" type="building" color="90,102,171" fill="1" layer="-1.00" shape="105,4005 395,4005 395,4295 105,4295 105,4005"/>
<poly id="b209" type="building" color="90,102,171" fill="1" layer="-1.00" shape="405,4005 695,4005 695,4295 405,4295 405,4005"/>
<poly id="b210" type="building" color="90,102,171" fill="1" layer="-1.00" shape="705,4005 995,4005 995,4295 705,4295 705,4005"/>
<poly id="b211" type="building" color="90,102,171" fill="1" layer="-1.00" shape="1005,4005 1295,4005 1295,4295 1005,4295 1005,4005"/>
<poly id="b212" type="building" color="90,102,171" fill="1" layer="-1.00" shape="1305,4005 1595,4005 1595,4295 1305,4295 1305,4005"/>
<poly id="b213" type="building" color="90,102,171" fill="1" layer="-1.00" shape="1605,4005 1895,4005 1895,4295 1605,4295 1605,4005"/>
<poly id="b214" type="building" color="90,102,171" fill="1" layer="-1.00" shape="1905,4005 2195,4005 2195,4295 1905,4295 1905,4005"/>
<poly id="b215" type="building" color="90,102,171" fill="1" layer="-1.00" shape="2205,4005 2495,4005 2495,4295 2205,4295 2205,4005"/>
<poly id="b216" type="building" color="90,102,171" fill="1" layer="-1.00" shape="2505,4005 2795,4005 2795,4295 2505,4295 2505,4005"/>
<poly id="b217" type="building" color="90,102,171" fill="1" layer="-1.00" shape="2805,4005 3095,4005 3095,4295 2805,4295 2805,4005"/>
<poly id="b218" type="building" color="90,102,171" fill="1" layer="-1.00" shape="3105,4005 3395,4005 3395,4295 3105,4295 3105,4005"/>
<poly id="b219" type="building" color="90,102,171" fill="1" layer="-1.00" shape="3405,4005 3695,4005 3695,4295 3405,4295 3405,4005"/>
<poly id="b220" type="building" color="90,102,171" fill="1" layer="-1.00" shape="3705,4005 3995,4005 3995,4295 3705,4295 3705,4005"/>
<poly id="b221" type="building" color="90,102,171" fill="1" layer="-1.00" shape="4005,4005 4295,4005 4295,4295 4005,4295 4005,4005"/>
<poly id="b222" type="building" color="90,102,171" fill="1" layer="-1.00" shape="4305,4005 4595,4005 4595,4295 4305,4295 4305,4005"/>
<poly id="b223" type="building" color="90,102,171" fill="1" layer="-1.00" shape="4605,4005 4895,4005 4895,4295 4605,4295 4605,4005"/>
<poly id="b224" type="building" color="90,102,171" fill="1" layer="-1.00" shape="105,4305 395,4305 395,4595 105,4595 105,4305"/>
<poly id="b225" type="building" color="90,102,171" fill="1" layer="-1.00" shape="405,4305 695,4305 695,4595 405,4595 405,4305"/>