<?xml version="1.0" encoding="UTF-8"?>

<!-- generated on Sat Dec  8 18:09:04 2018 by SUMO duarouter Version 0.30.0
<?xml version="1.0" encoding="UTF-8"?>

<configuration xmlns:xsi="http://www.w3.org/2001/XMLSchema-instance" xsi:noNamespaceSchemaLocation="http://sumo.dlr.de/xsd/duarouterConfiguration.xsd">

    <input>
        <net-file value="osm.net.xml"/>
        <trip-files value="osm.passenger.trips.xml"/>
    </input>

    <output>
        <output-file value="osm.passenger.rou.xml"/>
    </output>

    <processing>
        <ignore-errors value="true"/>
    </processing>

    <time>
        <begin value="0"/>
        <end value="3600.0"/>
    </time>

    <report>
        <no-warnings value="true"/>
        <no-step-log value="true"/>
    </report>

</configuration>
-->

<routes xmlns:xsi="http://www.w3.org/2001/XMLSchema-instance" xsi:noNamespaceSchemaLocation="http://sumo.dlr.de/xsd/routes_file.xsd">
    <vType id="passenger" vClass="passenger"/>
    <vehicle id="veh0" type="passenger" depart="0.00" departLane="best">
        <route edges="373996562#0 373996562#1 4543589#1 4543589#4 374098768#1 374344542#2 374344542#3 374344542#4 374344539#0 374344540#0 374344540#1 374344538#0 332164871#0 4402657#1 -374344531#4 -374344531#3 -374344531#2 -374344531#1 -374344531#0 -374344532#0 -374344533#1 42103711 4403591#1 -374595307 -4677645 169711650#0 -169711650#1"/>
    </vehicle>
    <vehicle id="veh1" type="passenger" depart="3.52" departLane="best">
        <route edges="-4396910#0 -28789621#1 -28789621#0 -4396919#2 -4396919#0 34546737#1 147664186 374621841#0 374621841#1 374621841#2 147664176#0 147664176#1 147664176#2 34956511#0 34956511#1 34956511#2 34956511#3 34956511#4 34956511#5 34956511#6 34956511#7 305732881 631641755#0 4597028#0 4597028#1 4597028#2 147664165#0 147664165#1 147664165#2 42732336#0 42732336#1 42732336#2 -42732336#2"/>
    </vehicle>
    <vehicle id="veh2" type="passenger" depart="7.05" departLane="best">
        <route edges="42732331#2 42732331#3 42732331#4 42732331#5 -172921853#4 -172921853#3 -172921853#2 -172921853#0 -119914238#2 -119914238#1 -119914238#0 -42689935#5 -42689935#4 -42689935#3 -42689935#2 4597032#0 4597032#3 4597032#4 4597032#6 4597032#7 631641755#3 631641755#4 -305732881 -34956511#7 -34956511#6 -34956511#5 -34956511#4 -34956511#3 -34956511#2 -34956511#1 -34956511#0 -147664176#2 -147664176#1 -147664176#0 -374621841#2 -374621841#1 -374621841#0 374621841#0"/>
    </vehicle>
    <vehicle id="veh3" type="passenger" depart="10.57" departLane="best">
        <route edges="4597055#0 4597055#1 4597055#2 4597055#3 -147664165#2 -147664165#1 -147664165#0 -4597028#2 -4597028#1 -4597028#0 631641755#1 631641755#2 631641755#3 631641755#4 -305732881 -34956511#7 -34956511#6 -34956511#5 -34956511#4 -34956511#3 -34956511#2 -34956511#1 -34956511#0 -147664176#2 -147664176#1 -147664176#0 -374621841#2 -374621841#1 -374621841#0 -147664186 -34546737#1 -23899000"/>
    </vehicle>
    <vehicle id="veh4" type="passenger" depart="14.09" departLane="best">
        <route edges="119914238#0 -119914238#0 -42732333#7 -42732333#6 -42732333#5 -42732333#4 -42732333#3 -172920331#8 -172920331#7 -172920331#6 -172920331#5 -172920331#4 -172920331#3"/>
    </vehicle>
    <vehicle id="veh5" type="passenger" depart="17.61" departLane="best">
        <route edges="-380162920 380162918 376545735#0 332164880#0 332164877#0 332164877#3 4677615#1 4592573#1 332164879#0 374595307 374595308 374595316#0 374344533#0 374344533#2 374344532#1 374344531#1 374344531#2 374344531#3 374344531#4 4402643 25217543#1 25217543#2 377644586#0 25781742#1 25781742#3 25781742#5 377644577#1 377644580#0 42732309#1 20160206#1"/>
    </vehicle>
    <vehicle id="veh6" type="passenger" depart="21.14" departLane="best">
        <route edges="-147659855#1 -147659855#0 -506732316 176112922#0 -436413565#2 -436413565#1 -119914238#9 -119914238#8 -119914238#7 -119914238#6 -119914238#5 -119914238#4 -119914238#2 -119914238#1 -119914238#0 -42689935#5 -42689935#4 -42689935#3 -42689935#2 4597032#0 4597032#3 4597032#4 4597032#6 4597032#7 631641755#3 631641755#4 -305732881 -34956511#7 -34956511#6 -34956511#5 -34956511#4 -34956511#3 -34956511#2 -34956511#1 -34956511#0 -147664176#2 -147664176#1 -147664176#0 -374621841#2 -374621841#1 -374621841#0 -147664186 -34546737#1 -23899000 -24700553#2 -24700553#1 -24700553#0 27708236 374621844#0 374621844#1 240526036#0 240526036#1 240526036#2 332164873#0 332164873#1 4402657#1 -374344531#4 -374344531#3 -374344531#2 -374344531#1 -374344531#0 -374344532#0 -374344533#1 42103711 4403591#1 -374595307 -4677645 -42103710 -4592573#0 -332164877#3 -332164877#2 -28698789#1 185779390#1 376720436#0 376720436#1 376720440 376720441#0 -376720441#0"/>
    </vehicle>
    <vehicle id="veh7" type="passenger" depart="24.66" departLane="best">
        <route edges="374152381#8 374152381#9 374152381#10 374152381#11 333607513#0 333607513#1 333607513#2 333607513#3 333607513#4 333607513#5 333607513#6 333607513#7 333607513#8 333607513#10 333607513#11 333607513#12 374152383#0 374152383#1 374152384#0 374152384#1 374152384#2 374152382 182584478#0 374098768#1 374344542#2 374344542#3 374344542#4 374344539#0 374344540#0 374344540#1 374344538#0 332164871#0 25217543#1 25217543#2 377644586#0 25217948#1 -24700552#1 -378331294#0 -24700551#1 -24700551#0 24700551#0"/>
    </vehicle>
    <vehicle id="veh8" type="passenger" depart="28.18" departLane="best">
        <route edges="-42091230 -595155216 520229622#0 520229622#1 -520229610 52960099#0 52960099#2 -374621842#4 -374621842#0 -374621840 -53542195 -374621841#2 -374621841#1 -374621841#0 -147664186 -34546737#1 -23899000 -24700553#2 -24700553#1 -24700553#0 27708236 374621844#0 374621844#1 240526036#0 240526036#1 240526036#2 332164873#0 332164873#1 25217949#1 374344536 374344535#0 374344535#1 374344535#2 374344535#3 374344535#4 374344535#5 374344535#6 374344535#7 374344535#8 374344535#9 374344535#12 373996567#1 374152364#2 4581770#0 4581770#1 4581770#4 4581770#5 4581770#6 4581770#7 281073954#1 281073954#2"/>
    </vehicle>
    <vehicle id="veh9" type="passenger" depart="31.70" departLane="best">
        <route edges="4543571#0 4543571#1 4543571#2 25356421#3 25356421#4 15224672#0 15224672#1 4543574#0 4543574#1 4543574#2 4543574#3 4543574#4 4543574#5 4543574#6 55896222#0 -220648313#3 -220648313#2 -220648313#1 -220648313#0 374595316#0 374344533#0 374344533#2 374344532#1 374344531#1 374344531#2 374344531#3 374344531#4 4402643 25217541#0 25217541#1 25217541#2 374621843#0 374621843#1 42989675#0 42989675#1 374621845#1 374621845#2 4402642 24700553#1 24700553#2 23899000 34546737#1 147664186 374621841#0 374621841#1 374621841#2 147664176#0 147664176#1 147664176#2 34956511#0 34956511#1 34956511#2 34956511#3 34956511#4 34956511#5 34956511#6 34956511#7 305732881 631641755#0 631641755#1 631641755#2 -4597032#7 -4597032#6 -4597032#4 -4597032#3 -4597032#2 42689935#0 42689935#3 42689935#4 42689935#5 119914238#0 119914238#1 119914238#2 119914238#4 119914238#5 119914238#6 119914238#7 119914238#8 -119914238#8"/>
    </vehicle>
    <vehicle id="veh10" type="passenger" depart="35.23" departLane="best">
        <route edges="4543570#0 -25356421#1 -25356421#0 374152381#1 374152381#2 374152381#6 374152381#7 374152381#8 374152381#9 374152381#10 374152381#11 333607513#0 333607513#1 333607513#2 333607513#3 333607513#4 333607513#5 333607513#6 333607513#7 333607513#8 333607513#10 333607513#11 333607513#12 374152383#0 374152383#1 374152384#0 374152384#1 374152384#2 374152382 182584478#0 374098768#1 374344542#2 374344542#3 374344542#4 374344539#0 374344540#0 374344540#1 374344538#0 332164871#0 25217543#1 25217543#2 377644586#0"/>
    </vehicle>
    <vehicle id="veh11" type="passenger" depart="38.75" departLane="best">
        <route edges="-4597034#2 -4597034#0 -27927583#5 -27927583#4 -27927583#2 -4543954#3 -4543954#0 24700551#0 24700551#1 24700551#2 24700552#1 25217946#0 377644582 332164870#0 4402657#1 -374344531#4 -374344531#3 -374344531#2 -374344531#1 -374344531#0 -374344532#0 -374344533#1 42103711 4403591#1 -374595307 -4677645 -42103710 -4592573#0 -332164877#3 -332164877#2 -332164880#1 -375958862 -36830367#1 -36830368"/>
    </vehicle>
    <vehicle id="veh12" type="passenger" depart="42.27" departLane="best">
        <route edges="549316653#0 447815502#3 598074992 374344534#0 374344534#1 374344540#0 374344540#1 374344538#0 332164871#0 25217541#0 25217541#1 25217541#2 374621843#0 374621843#1 42989675#0 42989675#1 374621845#1 374621845#2 4402642 24700553#1 24700553#2 23899000 34546737#1 147664186 374621841#0 374621841#1 374621841#2 147664176#0 147664176#1 147664176#2 34956511#0 34956511#1 34956511#2 34956511#3 34956511#4 34956511#5 34956511#6 34956511#7 305732881 631641755#0 631641755#1 631641755#2 -4597032#7 -4597032#6 -4597032#4 -4597032#3 -4597032#2 590861828#0 590861828#3 4597033#0 4597033#1 593921230#0 593921230#1 593921230#2 593921230#3 4603463#0 -4603463#2"/>
    </vehicle>
    <vehicle id="veh13" type="passenger" depart="45.79" departLane="best">
        <route edges="-188944334#0 -175299344 377644587#1 377644587#2 377644587#3 377644587#6 377644587#8 377644582 332164870#0 25217949#1 374344536 374344535#0 374344535#1 374344535#2 374344535#3 374344535#4 374344535#5 374344535#6 374344535#7 374344535#8 374344535#9 374344535#12 373996567#1 374152364#2 4581770#0 4581770#1 -378173217#5 -378173217#3 -378173217#2 -378173217#1 -378173217#0 -247340730#4 -247340730#3 -247340730#2 -247340730#1 -247340730#0"/>
    </vehicle>
    <vehicle id="veh14" type="passenger" depart="49.32" departLane="best">
        <route edges="4594805#3 4594805#4 4594805#5 4594805#6 4594805#7 -53163720#1 53163714#0 374098768#1 374344542#2 374344542#3 374344542#4 374344539#0 374344540#0 374344540#1 374344538#0 332164871#0"/>
    </vehicle>
    <vehicle id="veh15" type="passenger" depart="52.84" departLane="best">
        <route edges="4543570#2 4543570#3 -610561277#3 -610561277#2 333607513#0 333607513#1 333607513#2 333607513#3 333607513#4 333607513#5 333607513#6 333607513#7 333607513#8 333607513#10 333607513#11 333607513#12 374152383#0 374152383#1 374152384#0 374152384#1 374152384#2 374152382 182584478#0 374098768#1 374344542#2 374344542#3 374344542#4 374344539#0 374344540#0 374344540#1 374344538#0 332164871#0 25217541#0 25217541#1 25217541#2 374621843#0 374621843#1 42989675#0 42989675#1 374621845#1 374621845#2 4402642 24700553#1 24700553#2 23899000 34546737#1 147664186 374621841#0 374621841#1 374621841#2 147664176#0 147664176#1 147664176#2 34956511#0 34956511#1 34956511#2 34956511#3 34956511#4 34956511#5 34956511#6 34956511#7 305732881 631641755#0 631641755#1 631641755#2 -4597032#7 -4597032#6 -4597032#4 -4597032#3 -4597032#2 42689935#0 42689935#3 42689935#4 42689935#5"/>
    </vehicle>
    <vehicle id="veh16" type="passenger" depart="56.36" departLane="best">
        <route edges="24700556#1 24700556#2 24700556#4 42732303#0 431306412#0 188944334#0 188944334#1 188944334#2 188944334#3 36954721#0 36954721#1 36954721#2 36954721#4 27927583#0 27927583#3 27927583#5 4597034#0 4597034#1 4597034#3 23075531#1 23075532#1 175152917#0 175152917#2 4597032#0 4597032#3 4597032#4 551121709#0 551121710"/>
    </vehicle>
    <vehicle id="veh17" type="passenger" depart="59.88" departLane="best">
        <route edges="-53163720#3 -53163720#1 53163714#0 374098768#1 374344542#2 374344542#3 374344542#4 374344539#0 374344540#0 374344540#1 374344538#0 332164871#0 25217543#1 25217543#2 377644586#0 25781742#1 25781742#3 25781742#5 377644577#1 377644580#0 42732309#1 4543924#0 24700556#1 24700556#2 24700556#4"/>
    </vehicle>
    <vehicle id="veh18" type="passenger" depart="63.41" departLane="best">
        <route edges="4581770#0 4581770#1 373996558#1 373996558#2 373996562#0 373996562#1 4543589#1 4543589#4 374098768#1 374344542#2 374344542#3 374344542#4 374344539#0 374344540#0 374344540#1 374344538#0 332164871#0 25217543#1 25217543#2 377644586#0 25781742#1 25781742#3 25781742#5 377644577#1 377644580#0 42732309#1 20160206#1 25070103#0 4595083 342159190 342159189"/>
    </vehicle>
    <vehicle id="veh19" type="passenger" depart="66.93" departLane="best">
        <route edges="4596990#2 -4596990#2 -4596990#1 -4596990#0 -147664176#2 -147664176#1 -147664176#0 -374621841#2 -374621841#1 -374621841#0 -147664186 -34546737#1 -23899000 -24700553#2 -24700553#1 -24700553#0 27708236 374621844#0 374621844#1 240526036#0 240526036#1 240526036#2 332164873#0 332164873#1 25217543#1 25217543#2 377644586#0 25781742#1"/>
    </vehicle>
    <vehicle id="veh20" type="passenger" depart="70.45" departLane="best">
        <route edges="377644587#2 377644587#3 377644587#6 377644587#8 25217948#1 -24700552#1 -378331294#0 -24700551#1 -24700551#0 4543954#0 4543954#1 27927583#0 27927583#3 27927583#5 4597034#0 4597034#1 4597034#3 23075531#1 23075532#1 175152917#0 175152917#2 42689935#0 42689935#3 42689935#4 42689935#5 119914238#0 119914238#1 119914238#2 172921853#0 -172922877#4"/>
    </vehicle>
    <vehicle id="veh21" type="passenger" depart="73.97" departLane="best">
        <route edges="-42689935#2 4597032#0 4597032#3 4597032#4 4597032#6 4597032#7 631641755#3 4596993 169459736#0 -25388818#1 -4596994#2 -4596994#1 -4596994#0 4596986#0 -4596986#0"/>
    </vehicle>
    <vehicle id="veh22" type="passenger" depart="77.50" departLane="best">
        <route edges="-23075532#1 -23075532#0 -23075531#0 -4597034#2 -4597034#0 -27927583#5 -27927583#4 -27927583#2 -4543954#3 -4543954#0 24700551#0 24700551#1 24700551#2 24700552#1 25217946#0 377644582 332164870#0 25217949#1 374344536 374344535#0 374344535#1 374344535#2 374344535#3 374344535#4 374344535#5 374344535#6 374344535#7 374344535#8 374344535#9 374344535#12 373996567#1 374152364#2 4581770#0 4581770#1 -378173217#5 -378173217#3 -378173217#2 -378173217#1 -378173217#0 -247340730#4 -247340730#3 4594129#0 -4594129#0"/>
    </vehicle>
    <vehicle id="veh23" type="passenger" depart="81.02" departLane="best">
        <route edges="36954721#4 -4543954#3 -4543954#0 -4596990#6 -4596990#5 -4596990#4 4596986#0 4596986#1 4596986#2 4596986#3 4596986#4 4596986#5 4596986#6 -53542202#0"/>
    </vehicle>
    <vehicle id="veh24" type="passenger" depart="84.54" departLane="best">
        <route edges="-506732316 176112922#0 -436413565#2 -436413565#1 -119914238#9 -119914238#8 -119914238#7 -119914238#6 -119914238#5 -119914238#4 -119914238#2 -119914238#1 -119914238#0 -42689935#5 -42689935#4 -42689935#3"/>
    </vehicle>
    <vehicle id="veh25" type="passenger" depart="88.07" departLane="best">
        <route edges="-436413565#9 -436413565#8 -436413565#7 -436413565#6 -436413565#5 -436413565#4 -436413565#2 -436413565#1 -119914238#9 -119914238#8 -119914238#7 -119914238#6 -119914238#5 -119914238#4 -119914238#2 -119914238#1 -119914238#0 -42689935#5 -42689935#4 -42689935#3 -42689935#2 4597032#0 4597032#3 4597032#4 4597032#6 4597032#7 631641755#3 631641755#4 -305732881 -34956511#7 -34956511#6 -34956511#5 -34956511#4 -34956511#3 -34956511#2 -34956511#1 -34956511#0 -147664176#2 -147664176#1 -147664176#0 -374621841#2 -374621841#1 -374621841#0 -147664186 -34546737#1 -23899000 -24700553#2 -24700553#1 -24700553#0 27708236 374621844#0 374621844#1 240526036#0 240526036#1 240526036#2 332164873#0 332164873#1 25217949#1 374344536 374344535#0 374344535#1 374344535#2 374344535#3 374344535#4 374344535#5 374344535#6 374344535#7 374344535#8 374344535#9 374344542#2 374344542#3 374344542#4 374344539#0 -374344534#1 -374344534#0 -598074992 -447815502#3 549316653#1 -5133252#1 5133252#1"/>
    </vehicle>
    <vehicle id="veh26" type="passenger" depart="91.59" departLane="best">
        <route edges="-36830367#1 380162918 376545735#0 332164880#0 332164877#0 332164877#3 4677615#1 4592573#1 332164879#0 374595307 374595308 374595316#0 374344533#0 374344533#2 374344532#1 374344531#1 374344531#2 374344531#3 374344531#4 4402643 25217541#0 25217541#1 25217541#2 374621843#0 374621843#1 42989675#0 42989675#1 374621845#1 374621845#2 4402642 24700553#1 24700553#2 23899000 34546737#1 147664186 374621841#0 374621841#1 374621841#2 147664176#0 147664176#1 147664176#2 34956511#0 34956511#1 34956511#2 34956511#3 34956511#4 34956511#5 34956511#6 34956511#7 305732881 631641755#0 631641755#1 631641755#2 -4597032#7 -4597032#6 -4597032#4 -4597032#3 -4597032#2 42689935#0 42689935#3 42689935#4"/>
    </vehicle>
    <vehicle id="veh27" type="passenger" depart="95.11" departLane="best">
        <route edges="-34546737#1 -23899000 -24700553#2 -24700553#1 -24700553#0 27708236 374621844#0 374621844#1 240526036#0 240526036#1 240526036#2 332164873#0 332164873#1 4402657#1 -374344531#4 -374344531#3 -374344531#2 -374344531#1 -374344531#0 -374344532#0 -374344533#1 42103711 4403591#1 -374595307 -4677645 169711650#0 481373508#0 481373508#1 -55816482#8 -55816482#7 -55816482#6 -55816482#5"/>
    </vehicle>
    <vehicle id="veh28" type="passenger" depart="98.63" departLane="best">
        <route edges="631641755#0 631641755#1 631641755#2 631641755#3 631641755#4 -305732881 -34956511#7 -34956511#6 -34956511#5 -34956511#4 -34956511#3 -34956511#2 -34956511#1 -34956511#0 -147664176#2 -147664176#1 -147664176#0 -374621841#2 -374621841#1 -374621841#0 -147664186 -34546737#1 -23899000 -24700553#2 -24700553#1 -24700553#0 27708236 374621844#0 374621844#1 240526036#0 240526036#1 240526036#2 332164873#0 332164873#1 25217949#1 374344536 374344535#0 374344535#1 374344535#2 374344535#3 374344535#4 374344535#5 374344535#6 374344535#7 374344535#8 374344535#9 374344535#12 182584477#1 -374152382 -374152384#2 -374152384#1 -374152384#0 -374152383#1 -374152383#0 -333607513#12 -333607513#11 -333607513#10 -333607513#8 -333607513#7 -333607513#6 -333607513#5 -333607513#4 -333607513#3 -333607513#2 -333607513#1 -333607513#0 -374152381#11 -374152381#10 -374152381#9 -374152381#8 -374152381#7 -374152381#6 -374152381#2 -374152381#1 374152381#1"/>
    </vehicle>
    <vehicle id="veh29" type="passenger" depart="102.16" departLane="best">
        <route edges="25356421#1 -25356421#1 -25356421#0 374152381#1 374152381#2 374152381#6 374152381#7 374152381#8 374152381#9 374152381#10 374152381#11 333607513#0 333607513#1 333607513#2 333607513#3 333607513#4 333607513#5 333607513#6 333607513#7 333607513#8 333607513#10 333607513#11 333607513#12 374152383#0 374152383#1 374152384#0 374152384#1 374152384#2 374152382 182584478#0 374098768#1 374344542#2 374344542#3 374344542#4 374344539#0 374344540#0 374344540#1 374344538#0 332164871#0 25217541#0 25217541#1 25217541#2 374621843#0 374621843#1 42989675#0 42989675#1 374621845#1"/>
    </vehicle>
    <vehicle id="veh30" type="passenger" depart="105.68" departLane="best">
        <route edges="4594805#0 53163726#1 4543589#4 374098768#1 374344542#2 374344542#3 374344542#4 374344539#0 374344540#0 374344540#1 374344538#0 332164871#0 25217541#0 25217541#1 25217541#2 374621843#0 374621843#1 42989675#0 42989675#1 374621845#1 374621845#2 4402642 24700553#1 24700553#2 23899000 34546737#1 147664186 374621841#0 374621841#1 374621841#2 147664176#0 147664176#1 147664176#2 34956511#0 34956511#1 34956511#2 34956511#3 34956511#4 34956511#5 34956511#6 34956511#7 305732881 631641755#0 4597028#0 4597028#1 4597028#2 147664165#0 147664165#1 147664165#2 42732336#0 42732336#1 42732336#2 42732336#4 42732336#5 42732336#6 42732336#7 42732336#8 42732336#9 42732336#10 42732336#11 42732336#12"/>
    </vehicle>
    <vehicle id="veh31" type="passenger" depart="109.20" departLane="best">
        <route edges="-42689935#3 42689935#3 4597039#0 4597039#1 4597039#2 4597039#3 172920331#0 172920331#1 172920331#2 172920331#3 172920331#4 172920331#5 172920331#6 -172920331#6"/>
    </vehicle>
    <vehicle id="veh32" type="passenger" depart="112.72" departLane="best">
        <route edges="-4596984 -4596983 377644587#8 377644582 332164870#0 4402657#1 -374344531#4 -374344531#3 -374344531#2 -374344531#1 -374344531#0 -374344532#0 -374344533#1 42103711 220648313#0 220648313#1 220648313#2 220648313#3 -55896222#2 -4543574#8 -4543574#5 -4543574#4"/>
    </vehicle>
    <vehicle id="veh33" type="passenger" depart="116.25" departLane="best">
        <route edges="-378173217#1 378173217#1 378173217#2 378173217#3 378173217#4 373996558#1 373996558#2 373996562#0 373996562#1 4543589#1 4543589#4 374098768#1 374344542#2 374344542#3 374344542#4 374344539#0 374344540#0 374344540#1 374344538#0 332164871#0 25217541#0 25217541#1 25217541#2 374621843#0 374621843#1 42989675#0 42989675#1 374621845#1 374621845#2 4402642 24700553#1 24700553#2 23899000 34546737#1 147664186 374621841#0 374621841#1 374621841#2 -23898998 374621840 374621842#0 374621842#2 52960101 11482839#1 52960099#0"/>
    </vehicle>
    <vehicle id="veh34" type="passenger" depart="119.77" departLane="best">
        <route edges="4597029#1 4597029#3 -4597054 -42689935#3 -42689935#2 590861828#0 590861828#3 4597033#0 -4597033#0"/>
    </vehicle>
    <vehicle id="veh36" type="passenger" depart="126.81" departLane="best">
        <route edges="-436413565#6 -436413565#5 -436413565#4 -436413565#2 -436413565#1 -119914238#9 -119914238#8 -119914238#7 -119914238#6 -119914238#5 -119914238#4 -119914238#2 -119914238#1 -119914238#0 -42689935#5 -42689935#4 -42689935#3 -42689935#2 4597032#0 4597032#3 4597032#4 4597032#6 4597032#7 631641755#3 631641755#4 -305732881 -34956511#7 -34956511#6 -34956511#5 -34956511#4 -34956511#3 -34956511#2 -34956511#1 -34956511#0 -147664176#2 -147664176#1 -147664176#0 -23898998 374621840 374621842#0 374621842#2 129104626#0 129104626#3 129104626#4 129104626#5 129104626#6 129104626#7 129104626#8 -23735660#1 -23735660#0 -4396910#4"/>
    </vehicle>
    <vehicle id="veh37" type="passenger" depart="130.34" departLane="best">
        <route edges="25693290#1 240526036#0 240526036#1 240526036#2 332164873#0 332164873#1 4402657#1 -374344531#4 -374344531#3 -374344531#2 -374344531#1 -374344531#0 -374344532#0 -374344533#1 42103711 220648313#0 220648313#1 220648313#2 220648313#3 -55896222#2 -4543574#8 -4543574#5 -4543574#4 -4543574#3 -4543574#2 -4543574#1 -4543574#0 -15224672#1 -15224672#0 -25356421#4 -25356421#3 -4543571#2 -4543571#1"/>
    </vehicle>
    <vehicle id="veh38" type="passenger" depart="133.86" departLane="best">
        <route edges="31305656#0 -4383365#0 -595155216 520229622#0 520229622#1 -520229610 52960099#0 52960099#2 -374621842#4 -374621842#0 -374621840 -53542195 147664176#0 147664176#1 147664176#2 34956511#0 34956511#1 34956511#2 34956511#3 34956511#4 34956511#5 34956511#6 34956511#7 305732881 631641755#0 631641755#1 631641755#2 -4597032#7 -4597032#6 -4597032#4 -4597032#3 -4597032#2 42689935#0 42689935#3 4597039#0"/>
    </vehicle>
    <vehicle id="veh39" type="passenger" depart="137.38" departLane="best">
        <route edges="-551121710 -551121709#0 -4597032#4 -4597032#3 -4597032#2 42689935#0 42689935#3 4597054 -175299343#2 -175299343#1 -42732334#1"/>
    </vehicle>
    <vehicle id="veh40" type="passenger" depart="140.90" departLane="best">
        <route edges="645343613#1 -431664593 431664602#0 431664602#1 431664602#2 431664597#0 431664597#1 5133264#0 5133264#2 5133264#3 23735661#1 23735661#2 23735661#3 23735661#4 23735661#6 23735661#10 23635726 53543399#0 240526036#0 240526036#1 240526036#2 332164873#0 332164873#1 25217543#1 25217543#2 377644586#0 25781742#1 25781742#3 25781742#5 377644577#1 377644580#0 42732309#1 20160206#1 20160206#3"/>
    </vehicle>
    <vehicle id="veh41" type="passenger" depart="144.43" departLane="best">
        <route edges="-23735660#3 -23735660#2 -129104626#8 -129104626#7 -129104626#6 -129104626#5 -129104626#4 -129104626#3 -129104626#2 -374621842#4 -374621842#0 -374621840 -53542195 147664176#0 147664176#1 147664176#2 4596990#0 4596990#1 4596990#2 4596990#3 4596990#4 4596990#5 4596990#6 4543954#0 4543954#1 -36954721#6 -36954721#2 -36954721#1 -36954721#0 36954721#0"/>
    </vehicle>
    <vehicle id="veh42" type="passenger" depart="147.95" departLane="best">
        <route edges="4401840#0 4401840#3 4401840#4 281073955#0 281073955#1 281073955#2 373996555#0 373996558#1 373996558#2 373996562#0 373996562#1 4543589#1 4543589#4 374098768#1 374344542#2 374344542#3 374344542#4 374344539#0 374344540#0 374344540#1 374344538#0 332164871#0 25217541#0 25217541#1 25217541#2 374621843#0 374621843#1 42989675#0 42989675#1 374621845#1 374621845#2 4402642 24700553#1 24700553#2 23899000 34546737#1 147664186 374621841#0 374621841#1 374621841#2 -23898998 374621840 374621842#0 374621842#2 129104626#0 129104626#3 129104626#4 129104626#5 129104626#6"/>
    </vehicle>
    <vehicle id="veh43" type="passenger" depart="151.47" departLane="best">
        <route edges="-172921857#0 -172921853#2 -172921853#0 -119914238#2 -119914238#1 -119914238#0 -42689935#5 -42689935#4 -42689935#3 -42689935#2 4597032#0 4597032#3 4597032#4 4597032#6 4597032#7 631641755#3 631641755#4 -305732881 -34956511#7 -34956511#6 -34956511#5 -34956511#4 -34956511#3 -34956511#2 -34956511#1 -34956511#0 -147664176#2 -147664176#1 -147664176#0 -374621841#2 -374621841#1 -374621841#0 -147664186 -34546737#1 -23899000 -24700553#2 -24700553#1 -24700553#0 27708236 374621844#0 374621844#1 240526036#0 240526036#1 240526036#2 332164873#0 332164873#1 4402657#1 -374344531#4 -374344531#3 -374344531#2 -374344531#1 -374344531#0 -374344532#0 -374344533#1 42103711 4403591#1 -374595307 -4677645 169711650#0 481373508#0 481373508#1 -55816482#8"/>
    </vehicle>
    <vehicle id="veh44" type="passenger" depart="155.00" departLane="best">
        <route edges="645343613#0 645343614 42103709#2 431664594#0 431664594#1 -431664593 431664602#0 431664602#1 431664602#2 431664597#0 431664597#1 5133264#0 5133264#2 5133264#3 23735661#1 23735661#2 23735661#3 23735661#4 23735661#6 23735661#10 23635726 53543399#0 42989675#0 42989675#1 374621845#1 374621845#2 4402642 24700553#1 24700553#2 23899000 34546737#1 147664186 374621841#0 374621841#1 374621841#2 -23898998 374621840 374621842#0 374621842#2 129104626#0 129104626#3 129104626#4 129104626#5 129104626#6 129104626#7 129104626#8 23735660#2 23735660#3"/>
    </vehicle>
    <vehicle id="veh45" type="passenger" depart="158.52" departLane="best">
        <route edges="590861828#0 -590861828#2 4597032#0 4597032#3 4597032#4 4597032#6 4597032#7 631641755#3 631641755#4 -305732881 -34956511#7 -34956511#6 -34956511#5 -34956511#4 -34956511#3 -34956511#2 -34956511#1 -34956511#0 -147664176#2 -147664176#1 -147664176#0 -374621841#2 -374621841#1 -374621841#0 -147664186 -34546737#1 -23899000 -24700553#2 -24700553#1 -24700553#0 27708236 374621844#0 374621844#1 240526036#0 240526036#1 240526036#2 332164873#0 332164873#1 25217949#1 374344536 374344535#0 374344535#1 374344535#2 374344535#3 374344535#4 374344535#5 374344535#6 374344535#7 374344535#8 374344535#9 374344535#12 373996567#1 374152364#2 4581770#0 4581770#1 -378173217#5 -378173217#3 -378173217#2 -378173217#1 -378173217#0 -247340730#4 -247340730#3 4594129#0 4594129#1"/>
    </vehicle>
    <vehicle id="veh46" type="passenger" depart="162.04" departLane="best">
        <route edges="-119914238#9 -119914238#8 -119914238#7 -119914238#6 -119914238#5 -119914238#4 -119914238#2 -119914238#1 -119914238#0 -42689935#5 -42689935#4 -42689935#3 -42689935#2 4597032#0 4597032#3 4597032#4 4597032#6 4597032#7 631641755#3 631641755#4 -305732881 -34956511#7 -34956511#6 -34956511#5 -34956511#4 -34956511#3 -34956511#2 -34956511#1 -34956511#0 -147664176#2 -147664176#1 -147664176#0 -374621841#2 -374621841#1 -374621841#0 -147664186 -34546737#1 -23899000 -24700553#2 -24700553#1 -24700553#0 27708236 374621844#0 374621844#1 25781746#1 -23735661#10 -23735661#7 -23735661#5 -23735661#3 -23735661#2 -23735661#1 -23735661#0 -5133264#2 -5133264#1 42103709#0 42103709#1"/>
    </vehicle>
    <vehicle id="veh47" type="passenger" depart="165.56" departLane="best">
        <route edges="374621840 -374621840 -53542195 -374621841#2 -374621841#1 -374621841#0 -147664186 -34546737#1 -23899000 -24700553#2 -24700553#1 -24700553#0 27708236 374621844#0 374621844#1 25781746#1 -23735661#10 -23735661#7 23735661#6"/>
    </vehicle>
    <vehicle id="veh48" type="passenger" depart="169.09" departLane="best">
        <route edges="-436413565#9 -436413565#8 -436413565#7 -436413565#6 -436413565#5 -436413565#4 -436413565#2 -436413565#1 -119914238#9 -119914238#8 -119914238#7 -119914238#6 -119914238#5 -119914238#4 -119914238#2 -119914238#1 -119914238#0 -42689935#5 -42689935#4 -42689935#3 -42689935#2 4597032#0 4597032#3 4597032#4 4597032#6 4597032#7 631641755#3 631641755#4 -305732881 -34956511#7 -34956511#6 -34956511#5 -34956511#4 -34956511#3 -34956511#2 -34956511#1 -34956511#0 -147664176#2 -147664176#1 -147664176#0 -374621841#2 -374621841#1 -374621841#0 -147664186 -34546737#1 -23899000 -24700553#2 -24700553#1 -24700553#0 27708236 374621844#0 374621844#1 240526036#0 240526036#1 240526036#2 332164873#0 332164873#1 25217949#1 374344536 374344535#0 374344535#1 374344535#2 374344535#3 374344535#4 374344535#5 374344535#6 374344535#7 374344535#8 374344535#9 374344535#12 182584477#1 -374152382 -374152384#2 -374152384#1 -374152384#0 -374152383#1 -374152383#0 -333607513#12 -333607513#11 -333607513#10 -333607513#8 -333607513#7 -333607513#6 -333607513#5 -333607513#4 -333607513#3 -333607513#2 -333607513#1 -333607513#0 -374152381#11 -374152381#10 374152381#10"/>
    </vehicle>
    <vehicle id="veh49" type="passenger" depart="172.61" departLane="best">
        <route edges="-23735661#0 5133264#3 23735661#1 23735661#2 23735661#3 23735661#4 23735661#6 23735661#10 23635726 53543399#0 42989675#0 42989675#1 374621845#1 374621845#2 4402642 24700553#1 24700553#2 23899000 34546737#1 147664186 374621841#0 374621841#1 374621841#2 147664176#0 147664176#1 147664176#2 34956511#0 34956511#1 34956511#2 34956511#3 34956511#4 34956511#5 34956511#6 34956511#7 305732881 631641755#0 631641755#1 631641755#2 -4597032#7 -4597032#6 -4597032#4 -4597032#3 -4597032#2 42689935#0 42689935#3 42689935#4 42689935#5 119914238#0 119914238#1 119914238#2 119914238#4 119914238#5 119914238#6 119914238#7 119914238#8 119914238#9 436413565#0 436413565#2 -176112922#0 506732316 147659855#0 147659855#1"/>
    </vehicle>