<?xml version="1.0"?>
<!-- generated on 2018-12-07 16:18:52.267130 by $Id: route2trips.py 23614 2017-03-22 13:02:46Z luecken $ via randomTrips.py
  options: 
-->
<routes xmlns:xsi="http://www.w3.org/2001/XMLSchema-instance" xsi:noNamespaceSchemaLocation="http://sumo.dlr.de/xsd/routes_file.xsd">
    <vType id="passenger" vClass="passenger">
    </vType>
    <trip id="veh0" depart="0.00" departLane="best" from="236092221#0" to="-109902441#1" type="passenger"/>
    <trip id="veh1" depart="16.27" departLane="best" from="-35557161#5" to="-4402037" type="passenger"/>
    <trip id="veh2" depart="32.54" departLane="best" from="320462164#3" to="330840125#1" type="passenger"/>
    <trip id="veh3" depart="48.81" departLane="best" from="4588222#3" to="-24242882#2" type="passenger"/>
    <trip id="veh4" depart="65.08" departLane="best" from="-4611708" to="-132600840#0" type="passenger"/>
    <trip id="veh5" depart="81.34" departLane="best" from="-330840125#1" to="196850608#1" type="passenger"/>
    <trip id="veh6" depart="97.61" departLane="best" from="-109902441#2" to="-4401967#2" type="passenger"/>
    <trip id="veh7" depart="113.88" departLane="best" from="236092221#3" to="22972473#4" type="passenger"/>
    <trip id="veh8" depart="130.15" departLane="best" from="-330840125#1" to="24240246#3" type="passenger"/>
    <trip id="veh9" depart="146.42" departLane="best" from="43233756#0" to="-108031933#2" type="passenger"/>
    <trip id="veh10" depart="162.69" departLane="best" from="424323348" to="335462921#0" type="passenger"/>
    <trip id="veh11" depart="178.96" departLane="best" from="-4588217#5" to="-35557161#0" type="passenger"/>
    <trip id="veh12" depart="195.23" departLane="best" from="-196850606#0" to="-24913267#2" type="passenger"/>
    <trip id="veh13" depart="211.50" departLane="best" from="43233756#0" to="342968607#1" type="passenger"/>
    <trip id="veh14" depart="227.77" departLane="best" from="131577612#0" to="68647306#2" type="passenger"/>
    <trip id="veh15" depart="244.03" departLane="best" from="-4597324#0" to="236092221#0" type="passenger"/>
    <trip id="veh16" depart="260.30" departLane="best" from="4588219#0" to="24240245#1" type="passenger"/>
    <trip id="veh17" depart="276.57" departLane="best" from="-335462916" to="-4611706#1" type="passenger"/>
    <trip id="veh18" depart="292.84" departLane="best" from="-168935757#2" to="-4588217#1" type="passenger"/>
    <trip id="veh19" depart="309.11" departLane="best" from="-196850606#5" to="-4597324#0" type="passenger"/>
    <trip id="veh20" depart="325.38" departLane="best" from="22972473#3" to="109902441#0" type="passenger"/>
    <trip id="veh21" depart="341.65" departLane="best" from="-4588222#2" to="-4402037" type="passenger"/>
    <trip id="veh22" depart="357.92" departLane="best" from="-35557161#3" to="533509622#3" type="passenger"/>
    <trip id="veh23" depart="374.19" departLane="best" from="236092221#2" to="243854725#3" type="passenger"/>
    <trip id="veh24" depart="390.46" departLane="best" from="-24242882#2" to="109902441#2" type="passenger"/>
    <trip id="veh26" depart="422.99" departLane="best" from="132600840#1" to="335462921#0" type="passenger"/>
    <trip id="veh27" depart="439.26" departLane="best" from="4402037" to="389101365#0" type="passenger"/>
    <trip id="veh28" depart="455.53" departLane="best" from="-330840125#1" to="66071366#0" type="passenger"/>
    <trip id="veh29" depart="471.80" departLane="best" from="4588219#3" to="-47935842" type="passenger"/>
    <trip id="veh30" depart="488.07" departLane="best" from="23755739#0" to="132600840#1" type="passenger"/>
    <trip id="veh31" depart="504.34" departLane="best" from="4611706#1" to="188386313#0" type="passenger"/>
    <trip id="veh32" depart="520.61" departLane="best" from="-35557161#2" to="-4588219#1" type="passenger"/>
    <trip id="veh33" depart="536.88" departLane="best" from="155186522" to="-4588222#1" type="passenger"/>
    <trip id="veh34" depart="553.15" departLane="best" from="188386313#0" to="4611708" type="passenger"/>
    <trip id="veh35" depart="569.41" departLane="best" from="-4597324#2" to="-4402037" type="passenger"/>
    <trip id="veh36" depart="585.68" departLane="best" from="85255870#0" to="196850609#0" type="passenger"/>
    <trip id="veh37" depart="601.95" departLane="best" from="-196850606#5" to="24913304#3" type="passenger"/>
    <trip id="veh38" depart="618.22" departLane="best" from="389101365#3" to="168935756#0" type="passenger"/>
    <trip id="veh39" depart="634.49" departLane="best" from="85255869#0" to="22972473#3" type="passenger"/>
    <trip id="veh40" depart="650.76" departLane="best" from="-109902441#2" to="340498982#3" type="passenger"/>
    <trip id="veh41" depart="667.03" departLane="best" from="24242882#0" to="22972473#4" type="passenger"/>
    <trip id="veh42" depart="683.30" departLane="best" from="-35557161#3" to="320462164#2" type="passenger"/>
    <trip id="veh43" depart="699.57" departLane="best" from="-461526153" to="66071366#1" type="passenger"/>
    <trip id="veh44" depart="715.84" departLane="best" from="-85255869#2" to="-389101365#4" type="passenger"/>
    <trip id="veh45" depart="732.10" departLane="best" from="4611706#1" to="4597324#1" type="passenger"/>
    <trip id="veh46" depart="748.37" departLane="best" from="-389101365#4" to="320462163#1" type="passenger"/>
    <trip id="veh47" depart="764.64" departLane="best" from="342968607#1" to="22972473#4" type="passenger"/>
    <trip id="veh48" depart="780.91" departLane="best" from="-109902441#0" to="-533509622#1" type="passenger"/>
    <trip id="veh49" depart="797.18" departLane="best" from="4588220#0" to="66071366#1" type="passenger"/>
    <trip id="veh50" depart="813.45" departLane="best" from="-194069450#0" to="196850606#1" type="passenger"/>
    <trip id="veh51" depart="829.72" departLane="best" from="-168935757#2" to="35557161#5" type="passenger"/>
    <trip id="veh52" depart="845.99" departLane="best" from="35557143#1" to="-320462164#0" type="passenger"/>
    <trip id="veh53" depart="862.26" departLane="best" from="-66071366#1" to="236092221#0" type="passenger"/>
    <trip id="veh54" depart="878.52" departLane="best" from="-35557161#2" to="4597324#2" type="passenger"/>
    <trip id="veh55" depart="894.79" departLane="best" from="-4611708" to="-4402037" type="passenger"/>
    <trip id="veh56" depart="911.06" departLane="best" from="131577612#0" to="342968607#1" type="passenger"/>
    <trip id="veh57" depart="927.33" departLane="best" from="-330840125#0" to="-4611710#1" type="passenger"/>
    <trip id="veh58" depart="943.60" departLane="best" from="-22972473#3" to="-4402037" type="passenger"/>
    <trip id="veh59" depart="959.87" departLane="best" from="-4588217#2" to="24240246#3" type="passenger"/>
    <trip id="veh60" depart="976.14" departLane="best" from="-335462916" to="-4402037" type="passenger"/>
    <trip id="veh61" depart="992.41" departLane="best" from="-168935757#2" to="24913304#4" type="passenger"/>
    <trip id="veh62" depart="1008.68" departLane="best" from="-335462916" to="4611708" type="passenger"/>
    <trip id="veh63" depart="1024.95" departLane="best" from="4588217#3" to="-23755739#3" type="passenger"/>
    <trip id="veh64" depart="1041.21" departLane="best" from="-335462921#5" to="330840125#1" type="passenger"/>
    <trip id="veh65" depart="1057.48" departLane="best" from="-330840125#1" to="-320462164#2" type="passenger"/>
    <trip id="veh66" depart="1073.75" departLane="best" from="4611710#1" to="23755739#3" type="passenger"/>
    <trip id="veh67" depart="1090.02" departLane="best" from="-66071366#0" to="42102542#1" type="passenger"/>
    <trip id="veh68" depart="1106.29" departLane="best" from="-4611708" to="194069450#1" type="passenger"/>
    <trip id="veh69" depart="1122.56" departLane="best" from="320462163#1" to="330840125#1" type="passenger"/>
    <trip id="veh70" depart="1138.83" departLane="best" from="66071373#1" to="-24913267#2" type="passenger"/>
    <trip id="veh71" depart="1155.10" departLane="best" from="-4597324#2" to="-533509622#1" type="passenger"/>
    <trip id="veh72" depart="1171.37" departLane="best" from="-320462164#2" to="171423001#0" type="passenger"/>
    <trip id="veh73" depart="1187.64" departLane="best" from="-4611708" to="-4597324#0" type="passenger"/>
    <trip id="veh74" depart="1203.90" departLane="best" from="-335462921#5" to="461526152" type="passenger"/>
    <trip id="veh75" depart="1220.17" departLane="best" from="-461526153" to="4597320#1" type="passenger"/>
    <trip id="veh76" depart="1236.44" departLane="best" from="131577612#0" to="-194069450#1" type="passenger"/>
    <trip id="veh77" depart="1252.71" departLane="best" from="85255870#0" to="4588219#2" type="passenger"/>
    <trip id="veh78" depart="1268.98" departLane="best" from="533509622#0" to="461526153" type="passenger"/>
    <trip id="veh79" depart="1285.25" departLane="best" from="4588217#0" to="-35557161#2" type="passenger"/>
    <trip id="veh80" depart="1301.52" departLane="best" from="-66071366#1" to="-4402037" type="passenger"/>
    <trip id="veh81" depart="1317.79" departLane="best" from="-4597324#2" to="-22972473#2" type="passenger"/>
    <trip id="veh82" depart="1334.06" departLane="best" from="-4597324#0" to="68647306#3" type="passenger"/>
    <trip id="veh83" depart="1350.33" departLane="best" from="-35557161#2" to="38912785" type="passenger"/>
    <trip id="veh84" depart="1366.59" departLane="best" from="-461526153" to="168935756#0" type="passenger"/>
    <trip id="veh85" depart="1382.86" departLane="best" from="533509622#0" to="85255869#0" type="passenger"/>
    <trip id="veh86" depart="1399.13" departLane="best" from="132600840#0" to="340498982#3" type="passenger"/>
    <trip id="veh87" depart="1415.40" departLane="best" from="-24242882#0" to="-4611710#0" type="passenger"/>
    <trip id="veh88" depart="1431.67" departLane="best" from="533509622#0" to="24240245#1" type="passenger"/>
    <trip id="veh89" depart="1447.94" departLane="best" from="131577612#0" to="35557161#3" type="passenger"/>
    <trip id="veh90" depart="1464.21" departLane="best" from="-85255870#2" to="4588222#2" type="passenger"/>
    <trip id="veh91" depart="1480.48" departLane="best" from="-24242882#0" to="66071366#1" type="passenger"/>
    <trip id="veh92" depart="1496.75" departLane="best" from="-168935757#2" to="-42102542#2" type="passenger"/>
    <trip id="veh93" depart="1513.02" departLane="best" from="196850606#0" to="330840125#1" type="passenger"/>
    <trip id="veh94" depart="1529.28" departLane="best" from="-335462921#5" to="-320462164#0" type="passenger"/>
    <trip id="veh95" depart="1545.55" departLane="best" from="194069450#1" to="24913304#1" type="passenger"/>
    <trip id="veh96" depart="1561.82" departLane="best" from="-4611708" to="24240246#2" type="passenger"/>
    <trip id="veh97" depart="1578.09" departLane="best" from="108031933#0" to="533509622#2" type="passenger"/>
    <trip id="veh98" depart="1594.36" departLane="best" from="-330840125#0" to="340498982#3" type="passenger"/>
    <trip id="veh99" depart="1610.63" departLane="best" from="-335462921#5" to="132600840#1" type="passenger"/>
    <trip id="veh100" depart="1626.90" departLane="best" from="24240246#1" to="-4611710#0" type="passenger"/>
    <trip id="veh101" depart="1643.17" departLane="best" from="-43233756#3" to="35557161#4" type="passenger"/>
    <trip id="veh102" depart="1659.44" departLane="best" from="-168935757#2" to="171423001#2" type="passenger"/>
    <trip id="veh103" depart="1675.70" departLane="best" from="-168935757#2" to="-4402037" type="passenger"/>
    <trip id="veh104" depart="1691.97" departLane="best" from="-35557161#2" to="533509622#2" type="passenger"/>
    <trip id="veh105" depart="1708.24" departLane="best" from="4588222#0" to="4597324#2" type="passenger"/>
    <trip id="veh106" depart="1724.51" departLane="best" from="-4588222#2" to="-35557161#0" type="passenger"/>
    <trip id="veh107" depart="1740.78" departLane="best" from="4402037" to="340498982#0" type="passenger"/>
    <trip id="veh108" depart="1757.05" departLane="best" from="196850608#1" to="68647306#3" type="passenger"/>
    <trip id="veh109" depart="1773.32" departLane="best" from="23755739#0" to="-108031933#2" type="passenger"/>
    <trip id="veh110" depart="1789.59" departLane="best" from="4401967#0" to="-4611710#0" type="passenger"/>
    <trip id="veh111" depart="1805.86" departLane="best" from="-22972473#4" to="-320462164#0" type="passenger"/>
    <trip id="veh112" depart="1822.13" departLane="best" from="-196850606#5" to="236092221#1" type="passenger"/>
    <trip id="veh113" depart="1838.39" departLane="best" from="-35557161#4" to="243854725#0" type="passenger"/>
    <trip id="veh114" depart="1854.66" departLane="best" from="22972473#3" to="-4588222#1" type="passenger"/>
    <trip id="veh115" depart="1870.93" departLane="best" from="-4611708" to="-4597324#0" type="passenger"/>
    <trip id="veh116" depart="1887.20" departLane="best" from="-109902441#0" to="35557161#5" type="passenger"/>
    <trip id="veh117" depart="1903.47" departLane="best" from="236092221#0" to="-4588222#1" type="passenger"/>
    <trip id="veh118" depart="1919.74" departLane="best" from="-4611708" to="-108031933#2" type="passenger"/>
    <trip id="veh119" depart="1936.01" departLane="best" from="-168935757#2" to="4597324#2" type="passenger"/>
    <trip id="veh120" depart="1952.28" departLane="best" from="4597324#1" to="22972473#4" type="passenger"/>
    <trip id="veh121" depart="1968.55" departLane="best" from="-23755739#3" to="-320462164#0" type="passenger"/>
    <trip id="veh122" depart="1984.82" departLane="best" from="-42102542#2" to="4611708" type="passenger"/>
    <trip id="veh123" depart="2001.08" departLane="best" from="38912785" to="4597320#1" type="passenger"/>
    <trip id="veh124" depart="2017.35" departLane="best" from="4597320#1" to="-4402037" type="passenger"/>
    <trip id="veh125" depart="2033.62" departLane="best" from="-335462921#5" to="-320462163#0" type="passenger"/>
    <trip id="veh126" depart="2049.89" departLane="best" from="35557161#3" to="4597324#2" type="passenger"/>
    <trip id="veh127" depart="2066.16" departLane="best" from="-4611706#0" to="24913304#1" type="passenger"/>
    <trip id="veh128" depart="2082.43" departLane="best" from="-24242882#0" to="47935842" type="passenger"/>
    <trip id="veh129" depart="2098.70" departLane="best" from="4588219#0" to="68647306#3" type="passenger"/>
    <trip id="veh130" depart="2114.97" departLane="best" from="43233756#0" to="4597324#2" type="passenger"/>
    <trip id="veh131" depart="2131.24" departLane="best" from="-109902441#2" to="35557161#0" type="passenger"/>
    <trip id="veh132" depart="2147.51" departLane="best" from="42102542#1" to="4597324#0" type="passenger"/>
    <trip id="veh133" depart="2163.77" departLane="best" from="35557161#4" to="-320462163#3" type="passenger"/>
    <trip id="veh134" depart="2180.04" departLane="best" from="-530085630#2" to="-4611710#0" type="passenger"/>
    <trip id="veh135" depart="2196.31" departLane="best" from="-4588217#0" to="4597324#0" type="passenger"/>
    <trip id="veh136" depart="2212.58" departLane="best" from="66071373#1" to="22972473#4" type="passenger"/>
    <trip id="veh137" depart="2228.85" departLane="best" from="461526152" to="-320462164#0" type="passenger"/>
    <trip id="veh138" depart="2245.12" departLane="best" from="533509622#2" to="-389101365#4" type="passenger"/>
    <trip id="veh139" depart="2261.39" departLane="best" from="533509622#0" to="-4588222#2" type="passenger"/>
    <trip id="veh140" depart="2277.66" departLane="best" from="320462163#1" to="-4611710#1" type="passenger"/>
    <trip id="veh141" depart="2293.93" departLane="best" from="-4597324#1" to="24240245#1" type="passenger"/>
    <trip id="veh142" depart="2310.20" departLane="best" from="-35557143#4" to="340498982#3" type="passenger"/>
    <trip id="veh143" depart="2326.46" departLane="best" from="-109902441#0" to="461526153" type="passenger"/>
    <trip id="veh144" depart="2342.73" departLane="best" from="131577612#0" to="340498982#3" type="passenger"/>
    <trip id="veh145" depart="2359.00" departLane="best" from="326116285#3" to="330840125#1" type="passenger"/>
    <trip id="veh146" depart="2375.27" departLane="best" from="-4588222#1" to="-23755739#3" type="passenger"/>
    <trip id="veh147" depart="2391.54" departLane="best" from="24240245#1" to="-533509622#1" type="passenger"/>
    <trip id="veh148" depart="2407.81" departLane="best" from="24913304#4" to="-4611710#0" type="passenger"/>
    <trip id="veh149" depart="2424.08" departLane="best" from="-43233756#0" to="153698380#0" type="passenger"/>
    <trip id="veh150" depart="2440.35" departLane="best" from="-4597324#2" to="-4611710#0" type="passenger"/>
    <trip id="veh151" depart="2456.62" departLane="best" from="-22972473#4" to="155186522" type="passenger"/>
    <trip id="veh152" depart="2472.89" departLane="best" from="4597324#0" to="24913267#3" type="passenger"/>
    <trip id="veh153" depart="2489.15" departLane="best" from="-389101365#4" to="22972473#4" type="passenger"/>
    <trip id="veh154" depart="2505.42" departLane="best" from="-109902441#0" to="-4611706#0" type="passenger"/>
    <trip id="veh155" depart="2521.69" departLane="best" from="-4611708" to="24240246#1" type="passenger"/>
    <trip id="veh156" depart="2537.96" departLane="best" from="23755739#0" to="194069450#0" type="passenger"/>
    <trip id="veh157" depart="2554.23" departLane="best" from="-461526153" to="-4402037" type="passenger"/>
    <trip id="veh158" depart="2570.50" departLane="best" from="38912785" to="-35557161#3" type="passenger"/>
    <trip id="veh159" depart="2586.77" departLane="best" from="-168935757#2" to="196850609#2" type="passenger"/>
    <trip id="veh160" depart="2603.04" departLane="best" from="22972473#0" to="-533509622#1" type="passenger"/>
    <trip id="veh161" depart="2619.31" departLane="best" from="4401967#0" to="35557161#4" type="passenger"/>
    <trip id="veh162" depart="2635.57" departLane="best" from="-335462921#5" to="196850606#1" type="passenger"/>
    <trip id="veh163" depart="2651.84" departLane="best" from="4588217#1" to="-23755739#4" type="passenger"/>
    <trip id="veh164" depart="2668.11" departLane="best" from="-4611708" to="24913304#4" type="passenger"/>
    <trip id="veh165" depart="2684.38" departLane="best" from="-326116285#2" to="335462921#0" type="passenger"/>
    <trip id="veh166" depart="2700.65" departLane="best" from="-66071373#1" to="-4588219#0" type="passenger"/>
    <trip id="veh167" depart="2716.92" departLane="best" from="23755739#0" to="-108031933#2" type="passenger"/>
    <trip id="veh168" depart="2733.19" departLane="best" from="335462916" to="35557161#5" type="passenger"/>
    <trip id="veh169" depart="2749.46" departLane="best" from="-24913267#2" to="66071366#1" type="passenger"/>
    <trip id="veh170" depart="2765.73" departLane="best" from="108031933#0" to="-194069450#1" type="passenger"/>
    <trip id="veh171" depart="2782.00" departLane="best" from="-335462921#5" to="4588222#0" type="passenger"/>
    <trip id="veh172" depart="2798.26" departLane="best" from="24240245#1" to="68647306#3" type="passenger"/>
    <trip id="veh173" depart="2814.53" departLane="best" from="196850606#0" to="66071366#1" type="passenger"/>
    <trip id="veh174" depart="2830.80" departLane="best" from="4588222#2" to="24913267#0" type="passenger"/>
    <trip id="veh175" depart="2847.07" departLane="best" from="24913304#4" to="196850608#1" type="passenger"/>
    <trip id="veh176" depart="2863.34" departLane="best" from="4402037" to="22972473#4" type="passenger"/>
    <trip id="veh177" depart="2879.61" departLane="best" from="4597320#1" to="35557161#2" type="passenger"/>
    <trip id="veh178" depart="2895.88" departLane="best" from="-66071366#0" to="-4588222#0" type="passenger"/>
    <trip id="veh179" depart="2912.15" departLane="best" from="-335462921#5" to="320462163#1" type="passenger"/>
    <trip id="veh180" depart="2928.42" departLane="best" from="35557143#1" to="210668637" type="passenger"/>
    <trip id="veh181" depart="2944.69" departLane="best" from="-168935757#2" to="-4611706#0" type="passenger"/>
    <trip id="veh182" depart="2960.95" departLane="best" from="-35557161#4" to="-530085630#2" type="passenger"/>
    <trip id="veh183" depart="2977.22" departLane="best" from="131577612#0" to="-326116286#2" type="passenger"/>
    <trip id="veh184" depart="2993.49" departLane="best" from="-335462916" to="335462921#0" type="passenger"/>
    <trip id="veh185" depart="3009.76" departLane="best" from="24913267#3" to="-22972473#3" type="passenger"/>
    <trip id="veh186" depart="3026.03" departLane="best" from="-4611706#0" to="22972473#4" type="passenger"/>
    <trip id="veh187" depart="3042.30" departLane="best" from="-4611708" to="-4402014#3" type="passenger"/>
    <trip id="veh188" depart="3058.57" departLane="best" from="188386313#0" to="335462921#0" type="passenger"/>
    <trip id="veh189" depart="3074.84" departLane="best" from="4588217#2" to="35557161#5" type="passenger"/>
    <trip id="veh190" depart="3091.11" departLane="best" from="-4597324#0" to="-108031933#2" type="passenger"/>
    <trip id="veh191" depart="3107.38" departLane="best" from="-4588219#2" to="35557161#4" type="passenger"/>
    <trip id="veh192" depart="3123.64" departLane="best" from="4588217#2" to="66071366#1" type="passenger"/>
    <trip id="veh193" depart="3139.91" departLane="best" from="-4611708" to="35557161#3" type="passenger"/>
    <trip id="veh194" depart="3156.18" departLane="best" from="131577612#0" to="243854725#0" type="passenger"/>
    <trip id="veh195" depart="3172.45" departLane="best" from="-330840125#1" to="-4402037" type="passenger"/>
    <trip id="veh196" depart="3188.72" departLane="best" from="-4611710#1" to="-132600840#0" type="passenger"/>
    <trip id="veh197" depart="3204.99" departLane="best" from="-4588217#2" to="335462916" type="passenger"/>
    <trip id="veh198" depart="3221.26" departLane="best" from="-4597324#2" to="-35557161#2" type="passenger"/>
    <trip id="veh199" depart="3237.53" departLane="best" from="-533509622#3" to="-320462164#0" type="passenger"/>
    <trip id="veh200" depart="3253.80" departLane="best" from="196850609#2" to="-132600840#0" type="passenger"/>
    <trip id="veh201" depart="3270.07" departLane="best" from="-4597324#2" to="236092221#3" type="passenger"/>
    <trip id="veh202" depart="3286.33" departLane="best" from="-132600840#0" to="320462164#2" type="passenger"/>
    <trip id="veh203" depart="3302.60" departLane="best" from="-22972473#4" to="188386313#0" type="passenger"/>
    <trip id="veh204" depart="3318.87" departLane="best" from="-153698380#2" to="109902441#2" type="passenger"/>
    <trip id="veh205" depart="3335.14" departLane="best" from="-330840125#1" to="-533509622#1" type="passenger"/>
    <trip id="veh206" depart="3351.41" departLane="best" from="342968607#1" to="109902441#2" type="passenger"/>
    <trip id="veh207" depart="3367.68" departLane="best" from="335462916" to="4588219#1" type="passenger"/>
    <trip id="veh208" depart="3383.95" departLane="best" from="-109902441#2" to="22972473#4" type="passenger"/>
    <trip id="veh209" depart="3400.22" departLane="best" from="85255870#0" to="-66071366#0" type="passenger"/>
    <trip id="veh210" depart="3416.49" departLane="best" from="236092221#3" to="35557161#5" type="passenger"/>
    <trip id="veh211" depart="3432.75" departLane="best" from="-109902441#2" to="-35557143#4" type="passenger"/>
    <trip id="veh212" depart="3449.02" departLane="best" from="-22972473#4" to="330840125#1" type="passenger"/>
    <trip id="veh213" depart="3465.29" departLane="best" from="168935756#0" to="-4402037" type="passenger"/>
    <trip id="veh214" depart="3481.56" departLane="best" from="24913267#0" to="35557161#5" type="passenger"/>
    <trip id="veh215" depart="3497.83" departLane="best" from="330840125#0" to="-320462164#0" type="passenger"/>
    <trip id="veh216" depart="3514.10" departLane="best" from="4402014#0" to="66071373#1" type="passenger"/>
    <trip id="veh217" depart="3530.37" departLane="best" from="-196850606#5" to="-109902441#1" type="passenger"/>
    <trip id="veh218" depart="3546.64" departLane="best" from="-43233756#0" to="330840125#1" type="passenger"/>
    <trip id="veh219" depart="3562.91" departLane="best" from="533509622#0" to="132600840#1" type="passenger"/>
    <trip id="veh220" depart="3579.18" departLane="best" from="24913304#3" to="-24242882#0" type="passenger"/>
    <trip id="veh221" depart="3595.44" departLane="best" from="24242882#2" to="24913304#3" type="passenger"/>
</routes>
