<?xml version="1.0" encoding="UTF-8"?>
<!-- generated on 2018-12-08 17:37:52.648171 by $Id: randomTrips.py 23999 2017-04-21 09:04:47Z behrisch $
  options: -n ../mappe/testMap/osm.net.xml -d 100 -o ../mappe/testMap/osm.trips.xml
-->
<routes xmlns:xsi="http://www.w3.org/2001/XMLSchema-instance" xsi:noNamespaceSchemaLocation="http://sumo.dlr.de/xsd/routes_file.xsd">
	<vType id="car" accel="0.8" decel="4.5" sigma="0.5" length="4" maxSpeed="50"/>

	<trip id="0" depart="0.00" departPos="13" from="4588217#2" to="4588217#2" type="car"/>
	<trip id="1" depart="0.00" departPos="43" from="4588217#3" to="4588217#3" type="car"/>
	<trip id="2" depart="0.00" departPos="12" from="-4588217#1" to="-4588217#1" type="car"/>
	<trip id="3" depart="0.00" departPos="3" from="-4588217#0" to="-4588217#0" type="car"/>
	<trip id="4" depart="0.00" departPos="47" from="194069450#1" to="194069450#1" type="car"/>
	<trip id="5" depart="0.00" departPos="56" from="24242882#0" to="24242882#0" type="car"/>
	<trip id="6" depart="0.00" departPos="43" from="243854725#3" to="243854725#3" type="car"/>
	<trip id="7" depart="0.00" departPos="46" from="24242882#1" to="24242882#1" type="car"/>
	<trip id="8" depart="0.00" departPos="37" from="-243854725#2" to="-243854725#2" type="car"/>
	<trip id="9" depart="0.00" departPos="8" from="171423001#0" to="171423001#0" type="car"/>
	<trip id="10" depart="0.00" departPos="18" from="196850609#0" to="196850609#0" type="car"/>
	<trip id="11" depart="0.00" departPos="49" from="35557143#2" to="35557143#2" type="car"/>
	<trip id="12" depart="0.00" departPos="86" from="-292429056#2" to="-292429056#2" type="car"/>
	<trip id="13" depart="0.00" departPos="24" from="-43233756#1" to="-43233756#1" type="car"/>
	<trip id="14" depart="0.00" departPos="60" from="109902441#0" to="109902441#0" type="car"/>
	<trip id="15" depart="0.00" departPos="76" from="109902441#1" to="109902441#1" type="car"/>
	<trip id="16" depart="0.00" departPos="37" from="4588219#0" to="4588219#0" type="car"/>
	<trip id="17" depart="0.00" departPos="62" from="4588219#1" to="4588219#1" type="car"/>
	<trip id="18" depart="0.00" departPos="49" from="4588219#2" to="4588219#2" type="car"/>
	<trip id="19" depart="0.00" departPos="3" from="196850606#1" to="196850606#1" type="car"/>
	<trip id="20" depart="0.00" departPos="13" from="196850606#3" to="196850606#3" type="car"/>
	<trip id="21" depart="0.00" departPos="58" from="4588219#3" to="4588219#3" type="car"/>
	<trip id="22" depart="0.00" departPos="42" from="22972473#3" to="22972473#3" type="car"/>
	<trip id="23" depart="0.00" departPos="61" from="-4588222#3" to="-4588222#3" type="car"/>
	<trip id="24" depart="0.00" departPos="45" from="-4588222#2" to="-4588222#2" type="car"/>
	<trip id="25" depart="0.00" departPos="80" from="-4588222#1" to="-4588222#1" type="car"/>
	<trip id="26" depart="0.00" departPos="67" from="-168935757#0" to="-168935757#0" type="car"/>
	<trip id="27" depart="0.00" departPos="41" from="-47935842" to="-47935842" type="car"/>
	<trip id="28" depart="0.00" departPos="34" from="-23755739#4" to="-23755739#4" type="car"/>
	<trip id="29" depart="0.00" departPos="26" from="-23755739#3" to="-23755739#3" type="car"/>
	<trip id="30" depart="0.00" departPos="14" from="85255869#2" to="85255869#2" type="car"/>
	<trip id="31" depart="0.00" departPos="86" from="335462921#0" to="335462921#0" type="car"/>
	<trip id="32" depart="0.00" departPos="51" from="335462921#1" to="335462921#1" type="car"/>
	<trip id="33" depart="0.00" departPos="15" from="335462921#3" to="335462921#3" type="car"/>
	<trip id="34" depart="0.00" departPos="20" from="-85255870#0" to="-85255870#0" type="car"/>
	<trip id="35" depart="0.00" departPos="2" from="-320462163#3" to="-320462163#3" type="car"/>
	<trip id="36" depart="0.00" departPos="8" from="-38912785" to="-38912785" type="car"/>
	<trip id="37" depart="0.00" departPos="28" from="24240245#1" to="24240245#1" type="car"/>
	<trip id="38" depart="0.00" departPos="2" from="424323348" to="424323348" type="car"/>
	<trip id="39" depart="0.00" departPos="44" from="24240246#1" to="24240246#1" type="car"/>
	<trip id="40" depart="0.00" departPos="6" from="236092221#1" to="236092221#1" type="car"/>
	<trip id="41" depart="0.00" departPos="34" from="236092221#2" to="236092221#2" type="car"/>
	<trip id="42" depart="0.00" departPos="91" from="342968607#1" to="342968607#1" type="car"/>
	<trip id="43" depart="0.00" departPos="9" from="461526153" to="461526153" type="car"/>
	<trip id="44" depart="0.00" departPos="57" from="461526152" to="461526152" type="car"/>
	<trip id="45" depart="0.00" departPos="58" from="340498982#0" to="340498982#0" type="car"/>
	<trip id="46" depart="0.00" departPos="3" from="340498982#2" to="340498982#2" type="car"/>
	<trip id="47" depart="0.00" departPos="98" from="340498982#3" to="340498982#3" type="car"/>
	<trip id="48" depart="0.00" departPos="28" from="-66071373#1" to="-66071373#1" type="car"/>
	<trip id="49" depart="0.00" departPos="87" from="188386313#0" to="188386313#0" type="car"/>
	<trip id="50" depart="0.00" departPos="9" from="155186522" to="155186522" type="car"/>
	<trip id="51" depart="0.00" departPos="8" from="24913267#2" to="24913267#2" type="car"/>
	<trip id="52" depart="0.00" departPos="50" from="24913304#1" to="24913304#1" type="car"/>
	<trip id="53" depart="0.00" departPos="13" from="24913304#3" to="24913304#3" type="car"/>
	<trip id="54" depart="0.00" departPos="36" from="24913304#4" to="24913304#4" type="car"/>
	<trip id="55" depart="0.00" departPos="3" from="-108031933#1" to="-108031933#1" type="car"/>
	<trip id="56" depart="0.00" departPos="5" from="153698380#1" to="153698380#1" type="car"/>
	<trip id="57" depart="0.00" departPos="2" from="4402014#0" to="4402014#0" type="car"/>
	<trip id="58" depart="0.00" departPos="13" from="4588220#2" to="4588220#2" type="car"/>
	<trip id="59" depart="0.00" departPos="4" from="4402014#2" to="4402014#2" type="car"/>
	<trip id="60" depart="0.00" departPos="0" from="236092221#0" to="236092221#0" type="car"/>
	<trip id="61" depart="0.00" departPos="13" from="-335462874#0" to="-335462874#0" type="car"/>
	<trip id="62" depart="0.00" departPos="11" from="-326116285#2" to="-326116285#2" type="car"/>
	<trip id="63" depart="0.00" departPos="4" from="-320462163#1" to="-320462163#1" type="car"/>
	<trip id="64" depart="0.00" departPos="18" from="-320462164#2" to="-320462164#2" type="car"/>
	<trip id="65" depart="0.00" departPos="58" from="4597320#1" to="4597320#1" type="car"/>
	<trip id="66" depart="0.00" departPos="17" from="-320462164#0" to="-320462164#0" type="car"/>
	<trip id="67" depart="0.00" departPos="95" from="-533509622#1" to="-533509622#1" type="car"/>
	<trip id="68" depart="0.00" departPos="63" from="4597324#0" to="4597324#0" type="car"/>
	<trip id="69" depart="0.00" departPos="12" from="533509622#2" to="533509622#2" type="car"/>
	<trip id="70" depart="0.00" departPos="35" from="533509622#3" to="533509622#3" type="car"/>
	<trip id="71" depart="0.00" departPos="40" from="168935757#1" to="168935757#1" type="car"/>
	<trip id="72" depart="0.00" departPos="11" from="196850607#1" to="196850607#1" type="car"/>
	<trip id="73" depart="0.00" departPos="8" from="196850608#0" to="196850608#0" type="car"/>
	<trip id="74" depart="0.00" departPos="39" from="-22972473#2" to="-22972473#2" type="car"/>
	<trip id="75" depart="0.00" departPos="15" from="389101365#2" to="389101365#2" type="car"/>
	<trip id="76" depart="0.00" departPos="26" from="35557161#0" to="35557161#0" type="car"/>
	<trip id="77" depart="0.00" departPos="30" from="-4611706#1" to="-4611706#1" type="car"/>
	<trip id="78" depart="0.00" departPos="49" from="66071366#0" to="66071366#0" type="car"/>
	<trip id="79" depart="0.00" departPos="6" from="35557161#3" to="35557161#3" type="car"/>
	<trip id="80" depart="0.00" departPos="19" from="35557161#4" to="35557161#4" type="car"/>
	<trip id="81" depart="0.00" departPos="14" from="68647306#1" to="68647306#1" type="car"/>
</routes>
