<?xml version="1.0"?>
<!-- generated on 2018-12-08 18:09:54.704778 by $Id: route2trips.py 23614 2017-03-22 13:02:46Z luecken $ via randomTrips.py
  options: 
-->
<routes xmlns:xsi="http://www.w3.org/2001/XMLSchema-instance" xsi:noNamespaceSchemaLocation="http://sumo.dlr.de/xsd/routes_file.xsd">
    <vType id="passenger" vClass="passenger">
    </vType>
    <trip id="veh0" depart="0.00" departLane="best" from="374152381#4" to="-169711650#1" type="passenger"/>
    <trip id="veh1" depart="4.84" departLane="best" from="-447815502#3" to="-42732333#1" type="passenger"/>
    <trip id="veh2" depart="9.68" departLane="best" from="42732333#0" to="374344535#0" type="passenger"/>
    <trip id="veh3" depart="14.51" departLane="best" from="4597055#1" to="-24700553#0" type="passenger"/>
    <trip id="veh4" depart="19.35" departLane="best" from="129104626#3" to="-172922877#1" type="passenger"/>
    <trip id="veh5" depart="24.19" departLane="best" from="-42103967#5" to="185779390#1" type="passenger"/>
    <trip id="veh6" depart="29.03" departLane="best" from="-147664176#2" to="-376720436#0" type="passenger"/>
    <trip id="veh7" depart="33.86" departLane="best" from="374344531#2" to="240526036#0" type="passenger"/>
    <trip id="veh8" depart="38.70" departLane="best" from="-42103968#0" to="28789621#0" type="passenger"/>
    <trip id="veh9" depart="43.54" departLane="best" from="4543589#0" to="-129104626#3" type="passenger"/>
    <trip id="veh10" depart="48.38" departLane="best" from="4543574#5" to="374595307" type="passenger"/>
    <trip id="veh11" depart="53.21" departLane="best" from="-4597039#1" to="-374098767#1" type="passenger"/>
    <trip id="veh12" depart="58.05" departLane="best" from="549316653#1" to="-481373508#1" type="passenger"/>
    <trip id="veh13" depart="62.89" departLane="best" from="4596986#2" to="333607513#1" type="passenger"/>
    <trip id="veh14" depart="67.73" departLane="best" from="4543574#6" to="377644587#6" type="passenger"/>
    <trip id="veh15" depart="72.56" departLane="best" from="25278674#0" to="551121710" type="passenger"/>
    <trip id="veh16" depart="77.40" departLane="best" from="-53542195" to="24700552#1" type="passenger"/>
    <trip id="veh18" depart="87.08" departLane="best" from="4596990#6" to="25781742#5" type="passenger"/>
    <trip id="veh19" depart="91.91" departLane="best" from="377644582" to="-175299344" type="passenger"/>
    <trip id="veh20" depart="96.75" departLane="best" from="-42690514#2" to="-4596986#1" type="passenger"/>
    <trip id="veh21" depart="101.59" departLane="best" from="-175299344" to="-42732336#1" type="passenger"/>
    <trip id="veh22" depart="106.43" departLane="best" from="-23075532#1" to="-4594805#1" type="passenger"/>
    <trip id="veh23" depart="111.26" departLane="best" from="374152381#1" to="-53542195" type="passenger"/>
    <trip id="veh24" depart="116.10" departLane="best" from="-53163720#6" to="-42103710" type="passenger"/>
    <trip id="veh25" depart="120.94" departLane="best" from="-4396910#2" to="520229597" type="passenger"/>
    <trip id="veh26" depart="125.78" departLane="best" from="374344531#1" to="333607513#3" type="passenger"/>
    <trip id="veh27" depart="130.61" departLane="best" from="-36954721#2" to="377644587#3" type="passenger"/>
    <trip id="veh28" depart="135.45" departLane="best" from="-34956511#3" to="-55816482#2" type="passenger"/>
    <trip id="veh30" depart="145.13" departLane="best" from="27708236" to="374344535#6" type="passenger"/>
    <trip id="veh31" depart="149.96" departLane="best" from="4596983" to="42732336#9" type="passenger"/>
    <trip id="veh32" depart="154.80" departLane="best" from="-42690514#2" to="-172922877#3" type="passenger"/>
    <trip id="veh33" depart="159.64" departLane="best" from="-4596990#6" to="-4543574#2" type="passenger"/>
    <trip id="veh34" depart="164.48" departLane="best" from="-376720436#1" to="52960101" type="passenger"/>
    <trip id="veh35" depart="169.32" departLane="best" from="374344533#2" to="-610561277#0" type="passenger"/>
    <trip id="veh36" depart="174.15" departLane="best" from="-4396910#2" to="-4383367#1" type="passenger"/>
    <trip id="veh37" depart="178.99" departLane="best" from="281073955#0" to="-4543570#0" type="passenger"/>
    <trip id="veh38" depart="183.83" departLane="best" from="332164877#0" to="4597033" type="passenger"/>
    <trip id="veh39" depart="188.67" departLane="best" from="-55816482#5" to="-42689935#5" type="passenger"/>
    <trip id="veh40" depart="193.50" departLane="best" from="631641755#3" to="188944334#3" type="passenger"/>
    <trip id="veh41" depart="198.34" departLane="best" from="-188944334#1" to="-180021208#1" type="passenger"/>
    <trip id="veh42" depart="203.18" departLane="best" from="-23735661#2" to="34956511#3" type="passenger"/>
    <trip id="veh43" depart="208.02" departLane="best" from="4543570#0" to="119914238#5" type="passenger"/>
    <trip id="veh44" depart="212.85" departLane="best" from="-174172052#1" to="-55816482#2" type="passenger"/>
    <trip id="veh45" depart="217.69" departLane="best" from="631641755#2" to="23075531#1" type="passenger"/>
    <trip id="veh46" depart="222.53" departLane="best" from="590861828#3" to="4596983" type="passenger"/>
    <trip id="veh47" depart="227.37" departLane="best" from="-129104626#3" to="377644577#1" type="passenger"/>
    <trip id="veh48" depart="232.20" departLane="best" from="374595316#0" to="23735661#1" type="passenger"/>
    <trip id="veh49" depart="237.04" departLane="best" from="-4396910#2" to="373996558#2" type="passenger"/>
    <trip id="veh50" depart="241.88" departLane="best" from="-23735661#5" to="147664165#1" type="passenger"/>
    <trip id="veh51" depart="246.72" departLane="best" from="175152917#0" to="53163720#8" type="passenger"/>
    <trip id="veh52" depart="251.55" departLane="best" from="4597029#0" to="-4543570#1" type="passenger"/>
    <trip id="veh53" depart="256.39" departLane="best" from="5133252#0" to="4596988#1" type="passenger"/>
    <trip id="veh54" depart="261.23" departLane="best" from="-4594805#5" to="373996558#2" type="passenger"/>
    <trip id="veh55" depart="266.07" departLane="best" from="34956511#4" to="-36954721#1" type="passenger"/>
    <trip id="veh56" depart="270.90" departLane="best" from="431664602" to="23735661#2" type="passenger"/>
    <trip id="veh57" depart="275.74" departLane="best" from="4396910#0" to="23075532#1" type="passenger"/>
    <trip id="veh58" depart="280.58" departLane="best" from="-119914238#0" to="-4597034#0" type="passenger"/>
    <trip id="veh59" depart="285.42" departLane="best" from="-129104626#6" to="5133252#1" type="passenger"/>
    <trip id="veh60" depart="290.25" departLane="best" from="4597032#0" to="4543924" type="passenger"/>
    <trip id="veh61" depart="295.09" departLane="best" from="-4596986#5" to="-188944334#2" type="passenger"/>
    <trip id="veh62" depart="299.93" departLane="best" from="4597029#3" to="53163720#4" type="passenger"/>
    <trip id="veh63" depart="304.77" departLane="best" from="-181468992" to="175298126#6" type="passenger"/>
    <trip id="veh64" depart="309.60" departLane="best" from="-175298126#3" to="42732333#3" type="passenger"/>
    <trip id="veh65" depart="314.44" departLane="best" from="431664602" to="-333607513#3" type="passenger"/>
    <trip id="veh66" depart="319.28" departLane="best" from="-4396910#2" to="4596990#0" type="passenger"/>
    <trip id="veh67" depart="324.12" departLane="best" from="129104626#4" to="-42103967#5" type="passenger"/>
    <trip id="veh68" depart="328.96" departLane="best" from="25278674#5" to="377644587#6" type="passenger"/>
    <trip id="veh69" depart="333.79" departLane="best" from="-374621841#1" to="-4597029#0" type="passenger"/>
    <trip id="veh70" depart="338.63" departLane="best" from="631641755#1" to="374152364#2" type="passenger"/>
    <trip id="veh71" depart="343.47" departLane="best" from="15224672#0" to="220647519#1" type="passenger"/>
    <trip id="veh72" depart="348.31" departLane="best" from="-24700553#0" to="-42732333#1" type="passenger"/>
    <trip id="veh73" depart="353.14" departLane="best" from="-4597034#2" to="28698789#0" type="passenger"/>
    <trip id="veh74" depart="357.98" departLane="best" from="-42690514#2" to="-42732333#1" type="passenger"/>
    <trip id="veh75" depart="362.82" departLane="best" from="-175298126#5" to="34956511#7" type="passenger"/>
    <trip id="veh76" depart="367.66" departLane="best" from="-42690514#2" to="4597039#0" type="passenger"/>
    <trip id="veh77" depart="372.49" departLane="best" from="4596990#5" to="-23707866#3" type="passenger"/>
    <trip id="veh78" depart="377.33" departLane="best" from="-42732336#0" to="374344531#3" type="passenger"/>
    <trip id="veh79" depart="382.17" departLane="best" from="-378331294#0" to="-333607513#7" type="passenger"/>
    <trip id="veh80" depart="387.01" departLane="best" from="53163720#4" to="25693290#0" type="passenger"/>
    <trip id="veh82" depart="396.68" departLane="best" from="4543589#0" to="-374621841#2" type="passenger"/>
    <trip id="veh83" depart="401.52" departLane="best" from="-220648313#3" to="129104626#6" type="passenger"/>
    <trip id="veh84" depart="406.36" departLane="best" from="129104626#4" to="172921853#1" type="passenger"/>
    <trip id="veh85" depart="411.19" departLane="best" from="42103968#1" to="374344533#2" type="passenger"/>
    <trip id="veh86" depart="416.03" departLane="best" from="610561277#3" to="-27708234" type="passenger"/>
    <trip id="veh87" depart="420.87" departLane="best" from="-590861828#2" to="-5133251#2" type="passenger"/>
    <trip id="veh88" depart="425.71" departLane="best" from="4596990#6" to="-4396910#0" type="passenger"/>
    <trip id="veh89" depart="430.54" departLane="best" from="-374344531#2" to="161677844" type="passenger"/>
    <trip id="veh90" depart="435.38" departLane="best" from="129104626#3" to="-4594805#1" type="passenger"/>
    <trip id="veh92" depart="445.06" departLane="best" from="172922876" to="4596983" type="passenger"/>
    <trip id="veh93" depart="449.89" departLane="best" from="27112876#1" to="-180021208#1" type="passenger"/>
    <trip id="veh94" depart="454.73" departLane="best" from="85182068#1" to="4543924" type="passenger"/>
    <trip id="veh95" depart="459.57" departLane="best" from="4596986#3" to="-374152381#4" type="passenger"/>
    <trip id="veh96" depart="464.41" departLane="best" from="-55816482#6" to="-188944334#2" type="passenger"/>
    <trip id="veh97" depart="469.24" departLane="best" from="-53542195" to="598074991#1" type="passenger"/>
    <trip id="veh99" depart="478.92" departLane="best" from="175298126#0" to="119914238#5" type="passenger"/>
    <trip id="veh100" depart="483.76" departLane="best" from="549316653#1" to="631641755#1" type="passenger"/>
    <trip id="veh101" depart="488.60" departLane="best" from="27708234" to="376720436#1" type="passenger"/>
    <trip id="veh102" depart="493.43" departLane="best" from="-333607513#6" to="-4596990#1" type="passenger"/>
    <trip id="veh103" depart="498.27" departLane="best" from="25693290#1" to="42689935#0" type="passenger"/>
    <trip id="veh104" depart="503.11" departLane="best" from="-172922877#1" to="27927583#3" type="passenger"/>
    <trip id="veh105" depart="507.95" departLane="best" from="23735661#2" to="4594143" type="passenger"/>
    <trip id="veh106" depart="512.78" departLane="best" from="-34546737#1" to="53543399#0" type="passenger"/>
    <trip id="veh107" depart="517.62" departLane="best" from="-175299344" to="-374595307" type="passenger"/>
    <trip id="veh108" depart="522.46" departLane="best" from="333607513#2" to="374344534#1" type="passenger"/>
    <trip id="veh109" depart="527.30" departLane="best" from="-42732333#4" to="-332164880#1" type="passenger"/>
    <trip id="veh110" depart="532.13" departLane="best" from="4597054" to="-4383367#1" type="passenger"/>
    <trip id="veh112" depart="541.81" departLane="best" from="119914238#4" to="27927583#3" type="passenger"/>
    <trip id="veh113" depart="546.65" departLane="best" from="24700556#0" to="520229597" type="passenger"/>
    <trip id="veh114" depart="551.48" departLane="best" from="-374621842#4" to="376720436#1" type="passenger"/>
    <trip id="veh115" depart="556.32" departLane="best" from="-42732336#1" to="-610561277#0" type="passenger"/>
    <trip id="veh116" depart="561.16" departLane="best" from="374344538#0" to="-4596990#4" type="passenger"/>
    <trip id="veh117" depart="566.00" departLane="best" from="-4596993" to="42690514#0" type="passenger"/>
    <trip id="veh118" depart="570.83" departLane="best" from="-175298126#6" to="169711649" type="passenger"/>
    <trip id="veh119" depart="575.67" departLane="best" from="-175298126#6" to="-42103968#0" type="passenger"/>
    <trip id="veh120" depart="580.51" departLane="best" from="-4396910#2" to="5133264#3" type="passenger"/>
    <trip id="veh121" depart="585.35" departLane="best" from="-53163720#5" to="-374152381#0" type="passenger"/>
    <trip id="veh122" depart="590.18" departLane="best" from="4594805#2" to="374621841#1" type="passenger"/>
    <trip id="veh123" depart="595.02" departLane="best" from="34956511#6" to="610561277#1" type="passenger"/>
    <trip id="veh124" depart="599.86" departLane="best" from="374344533#0" to="-129104626#5" type="passenger"/>
    <trip id="veh125" depart="604.70" departLane="best" from="4581770#0" to="-4596990#4" type="passenger"/>
    <trip id="veh126" depart="609.53" departLane="best" from="374344535#4" to="520229597" type="passenger"/>
    <trip id="veh127" depart="614.37" departLane="best" from="-27927583#5" to="-31305656#1" type="passenger"/>
    <trip id="veh128" depart="619.21" departLane="best" from="-23735661#1" to="24700553#2" type="passenger"/>
    <trip id="veh129" depart="624.05" departLane="best" from="220648313#0" to="4597039#0" type="passenger"/>
    <trip id="veh130" depart="628.88" departLane="best" from="129104626#4" to="-4594805#1" type="passenger"/>
    <trip id="veh131" depart="633.72" departLane="best" from="-119914238#4" to="42732336#6" type="passenger"/>
    <trip id="veh132" depart="638.56" departLane="best" from="374152381#2" to="-4543570#0" type="passenger"/>
    <trip id="veh133" depart="643.40" departLane="best" from="42732333#0" to="24700552#1" type="passenger"/>
    <trip id="veh134" depart="648.24" departLane="best" from="-175298126#6" to="4596994#2" type="passenger"/>
    <trip id="veh135" depart="653.07" departLane="best" from="48343154#0" to="240526036#1" type="passenger"/>
    <trip id="veh136" depart="657.91" departLane="best" from="4594805#3" to="27927583#0" type="passenger"/>
    <trip id="veh137" depart="662.75" departLane="best" from="-4596990#0" to="4597033" type="passenger"/>
    <trip id="veh138" depart="667.59" departLane="best" from="4543570#0" to="4596983" type="passenger"/>
    <trip id="veh139" depart="672.42" departLane="best" from="481373508#1" to="-42103967#1" type="passenger"/>
    <trip id="veh140" depart="677.26" departLane="best" from="-42732336#6" to="-27708234" type="passenger"/>
    <trip id="veh141" depart="682.10" departLane="best" from="4396910#1" to="4596994#3" type="passenger"/>
    <trip id="veh143" depart="691.77" departLane="best" from="-333607513#6" to="5133252#1" type="passenger"/>
    <trip id="veh144" depart="696.61" departLane="best" from="4596994#1" to="55816482#3" type="passenger"/>
    <trip id="veh145" depart="701.45" departLane="best" from="4543589#0" to="4596994#1" type="passenger"/>
    <trip id="veh146" depart="706.29" departLane="best" from="-147664176#1" to="42103709#1" type="passenger"/>
    <trip id="veh147" depart="711.12" departLane="best" from="-4597033" to="5133264#0" type="passenger"/>
    <trip id="veh148" depart="715.96" departLane="best" from="4543574#2" to="4596986#1" type="passenger"/>
    <trip id="veh149" depart="720.80" departLane="best" from="4543589#0" to="-4543574#1" type="passenger"/>
    <trip id="veh150" depart="725.64" departLane="best" from="447815502#0" to="-28789621#0" type="passenger"/>
    <trip id="veh151" depart="730.47" departLane="best" from="4597029#0" to="4594805#4" type="passenger"/>
    <trip id="veh152" depart="735.31" departLane="best" from="-42689935#2" to="45339885" type="passenger"/>
    <trip id="veh153" depart="740.15" departLane="best" from="175299343#1" to="-4596994#1" type="passenger"/>
    <trip id="veh154" depart="744.99" departLane="best" from="4543570#0" to="-42732333#4" type="passenger"/>
    <trip id="veh155" depart="749.82" departLane="best" from="-147664176#0" to="-375958862" type="passenger"/>
    <trip id="veh156" depart="754.66" departLane="best" from="-4597032#4" to="4596986#1" type="passenger"/>
    <trip id="veh157" depart="759.50" departLane="best" from="55816482#5" to="-4594805#1" type="passenger"/>
    <trip id="veh158" depart="764.34" departLane="best" from="374152382" to="-610561277#2" type="passenger"/>
    <trip id="veh159" depart="769.17" departLane="best" from="610561277#1" to="23707866#4" type="passenger"/>
    <trip id="veh160" depart="774.01" departLane="best" from="53163726#0" to="-31305656#1" type="passenger"/>
    <trip id="veh161" depart="778.85" departLane="best" from="590861828#0" to="-374344531#3" type="passenger"/>
    <trip id="veh162" depart="783.69" departLane="best" from="55816482#0" to="-4543574#0" type="passenger"/>
    <trip id="veh163" depart="788.52" departLane="best" from="-23735661#10" to="147664165#0" type="passenger"/>
    <trip id="veh164" depart="793.36" departLane="best" from="42103968#1" to="-4597029#0" type="passenger"/>
    <trip id="veh165" depart="798.20" departLane="best" from="34956511#1" to="20160206#1" type="passenger"/>
    <trip id="veh166" depart="803.04" departLane="best" from="-551121709#0" to="25781742#5" type="passenger"/>
    <trip id="veh167" depart="807.88" departLane="best" from="-4383367#2" to="374621843#1" type="passenger"/>
    <trip id="veh168" depart="812.71" departLane="best" from="-119914238#1" to="5133251#1" type="passenger"/>
    <trip id="veh169" depart="817.55" departLane="best" from="25278674#4" to="376720436#1" type="passenger"/>
    <trip id="veh170" depart="822.39" departLane="best" from="42732333#2" to="374344531#4" type="passenger"/>
    <trip id="veh171" depart="827.23" departLane="best" from="374344535#4" to="-4597055#0" type="passenger"/>
    <trip id="veh172" depart="832.06" departLane="best" from="-4596990#5" to="4581770#7" type="passenger"/>
    <trip id="veh173" depart="836.90" departLane="best" from="378173217#1" to="-4596990#4" type="passenger"/>
    <trip id="veh175" depart="846.58" departLane="best" from="-55896222#2" to="-4596990#0" type="passenger"/>
    <trip id="veh176" depart="851.41" departLane="best" from="-25278674#6" to="119914238#5" type="passenger"/>
    <trip id="veh177" depart="856.25" departLane="best" from="53163726#0" to="374344535#0" type="passenger"/>
    <trip id="veh178" depart="861.09" departLane="best" from="-119914238#0" to="-4596983" type="passenger"/>
    <trip id="veh179" depart="865.93" departLane="best" from="147664176#1" to="27112876#1" type="passenger"/>
    <trip id="veh180" depart="870.76" departLane="best" from="374344533#2" to="172921853#1" type="passenger"/>
    <trip id="veh181" depart="875.60" departLane="best" from="172921853#0" to="-42103968#0" type="passenger"/>
    <trip id="veh182" depart="880.44" departLane="best" from="182584478#0" to="4597033" type="passenger"/>
    <trip id="veh183" depart="885.28" departLane="best" from="4543570#0" to="-374152383#0" type="passenger"/>
    <trip id="veh184" depart="890.11" departLane="best" from="-181468992" to="20160206#1" type="passenger"/>
    <trip id="veh185" depart="894.95" departLane="best" from="374152381#0" to="-481373508#0" type="passenger"/>
    <trip id="veh186" depart="899.79" departLane="best" from="4581770#0" to="42689935#5" type="passenger"/>
    <trip id="veh187" depart="904.63" departLane="best" from="374344539#0" to="-42732333#1" type="passenger"/>
    <trip id="veh188" depart="909.46" departLane="best" from="-374621840" to="-169711650#1" type="passenger"/>
    <trip id="veh189" depart="914.30" departLane="best" from="-42732336#11" to="174172052#0" type="passenger"/>
    <trip id="veh190" depart="919.14" departLane="best" from="4596986#4" to="-23735661#0" type="passenger"/>
    <trip id="veh191" depart="923.98" departLane="best" from="-85182068#1" to="34956511#6" type="passenger"/>
    <trip id="veh192" depart="928.81" departLane="best" from="-374344533#1" to="374344542#4" type="passenger"/>
    <trip id="veh193" depart="933.65" departLane="best" from="23075532#1" to="-4383365#0" type="passenger"/>
    <trip id="veh194" depart="938.49" departLane="best" from="374344534#0" to="-129104626#3" type="passenger"/>
    <trip id="veh195" depart="943.33" departLane="best" from="-23735661#0" to="129104626#3" type="passenger"/>
    <trip id="veh196" depart="948.16" departLane="best" from="-374152381#1" to="53542202#2" type="passenger"/>
    <trip id="veh197" depart="953.00" departLane="best" from="24700553#2" to="-180021208#1" type="passenger"/>
    <trip id="veh198" depart="957.84" departLane="best" from="-42732336#6" to="4592573#1" type="passenger"/>
    <trip id="veh199" depart="962.68" departLane="best" from="175298126#1" to="4396910#2" type="passenger"/>
    <trip id="veh200" depart="967.52" departLane="best" from="374344535#7" to="610561277#2" type="passenger"/>
    <trip id="veh201" depart="972.35" departLane="best" from="333607513#3" to="53163720#6" type="passenger"/>
    <trip id="veh202" depart="977.19" departLane="best" from="4597055#0" to="333607513#6" type="passenger"/>
    <trip id="veh203" depart="982.03" departLane="best" from="378173217#1" to="185779390#1" type="passenger"/>
    <trip id="veh204" depart="986.87" departLane="best" from="4594805#0" to="24700551#0" type="passenger"/>
    <trip id="veh205" depart="991.70" departLane="best" from="4677615#1" to="42103967#2" type="passenger"/>
    <trip id="veh206" depart="996.54" departLane="best" from="185779390#1" to="-4543570#0" type="passenger"/>
    <trip id="veh207" depart="1001.38" departLane="best" from="-42732336#4" to="373996558#1" type="passenger"/>
    <trip id="veh208" depart="1006.22" departLane="best" from="431664602" to="220647519#5" type="passenger"/>
    <trip id="veh209" depart="1011.05" departLane="best" from="374098767#0" to="-4543954#3" type="passenger"/>
    <trip id="veh210" depart="1015.89" departLane="best" from="-175299343#1" to="-4594805#5" type="passenger"/>
    <trip id="veh211" depart="1020.73" departLane="best" from="-447815502#0" to="-4597032#3" type="passenger"/>
    <trip id="veh212" depart="1025.57" departLane="best" from="25388818#2" to="-34956511#1" type="passenger"/>
    <trip id="veh213" depart="1030.40" departLane="best" from="-42690514#2" to="374344540#1" type="passenger"/>
    <trip id="veh214" depart="1035.24" departLane="best" from="377644585#0" to="-23075530" type="passenger"/>
    <trip id="veh215" depart="1040.08" departLane="best" from="-610561277#2" to="23735661#6" type="passenger"/>
    <trip id="veh216" depart="1044.92" departLane="best" from="11482839#1" to="-378173217#3" type="passenger"/>
    <trip id="veh217" depart="1049.75" departLane="best" from="119914238#4" to="4597039#0" type="passenger"/>
    <trip id="veh218" depart="1054.59" departLane="best" from="332164873#1" to="374344542#3" type="passenger"/>
    <trip id="veh219" depart="1059.43" departLane="best" from="4596990#2" to="42732336#0" type="passenger"/>
    <trip id="veh220" depart="1064.27" departLane="best" from="-53542202#2" to="-129104626#3" type="passenger"/>
    <trip id="veh221" depart="1069.10" departLane="best" from="-4597055#3" to="42690514#0" type="passenger"/>
    <trip id="veh222" depart="1073.94" departLane="best" from="4596988#1" to="53163720#8" type="passenger"/>
    <trip id="veh223" depart="1078.78" departLane="best" from="119914238#2" to="42689935#0" type="passenger"/>
    <trip id="veh224" depart="1083.62" departLane="best" from="25781742#3" to="333607513#1" type="passenger"/>
    <trip id="veh225" depart="1088.45" departLane="best" from="-42103968#0" to="-42689935#5" type="passenger"/>
    <trip id="veh226" depart="1093.29" departLane="best" from="15224672#0" to="-172922877#1" type="passenger"/>
    <trip id="veh227" depart="1098.13" departLane="best" from="-4597033" to="374344535#12" type="passenger"/>
    <trip id="veh228" depart="1102.97" departLane="best" from="-590861828#3" to="-374152381#2" type="passenger"/>
    <trip id="veh229" depart="1107.80" departLane="best" from="180021208#2" to="-333607513#3" type="passenger"/>
    <trip id="veh230" depart="1112.64" departLane="best" from="36954721#4" to="-172922876" type="passenger"/>
    <trip id="veh231" depart="1117.48" departLane="best" from="-551121710" to="25217949#1" type="passenger"/>
    <trip id="veh232" depart="1122.32" departLane="best" from="-147664186" to="373996558#2" type="passenger"/>
    <trip id="veh233" depart="1127.16" departLane="best" from="-28698789#1" to="172921853#0" type="passenger"/>
    <trip id="veh234" depart="1131.99" departLane="best" from="-172921853#1" to="-55816482#2" type="passenger"/>
    <trip id="veh235" depart="1136.83" departLane="best" from="-376720436#1" to="-4597039#0" type="passenger"/>
    <trip id="veh236" depart="1141.67" departLane="best" from="431664597#1" to="-55816482#2" type="passenger"/>
    <trip id="veh237" depart="1146.51" departLane="best" from="42732336#5" to="4543924" type="passenger"/>
    <trip id="veh238" depart="1151.34" departLane="best" from="-4383367#0" to="-23899000" type="passenger"/>
    <trip id="veh239" depart="1156.18" departLane="best" from="-129104626#6" to="23735661#2" type="passenger"/>
    <trip id="veh240" depart="1161.02" departLane="best" from="85182068#1" to="-5133264#1" type="passenger"/>
    <trip id="veh241" depart="1165.86" departLane="best" from="374344531#3" to="42989675#1" type="passenger"/>
    <trip id="veh242" depart="1170.69" departLane="best" from="374344531#4" to="42690514#0" type="passenger"/>
    <trip id="veh243" depart="1175.53" departLane="best" from="53543399#0" to="-376720436#0" type="passenger"/>
    <trip id="veh244" depart="1180.37" departLane="best" from="-147664165#0" to="-36954721#1" type="passenger"/>
    <trip id="veh245" depart="1185.21" departLane="best" from="-25278674#4" to="374344531#3" type="passenger"/>
    <trip id="veh246" depart="1190.04" departLane="best" from="281073955#0" to="-42689935#4" type="passenger"/>
    <trip id="veh247" depart="1194.88" departLane="best" from="376545735#0" to="42732336#1" type="passenger"/>
    <trip id="veh248" depart="1199.72" departLane="best" from="-34956511#7" to="333607513#12" type="passenger"/>
    <trip id="veh249" depart="1204.56" departLane="best" from="4581770#0" to="551121709#1" type="passenger"/>
    <trip id="veh250" depart="1209.39" departLane="best" from="-23735661#1" to="-172921853#0" type="passenger"/>
    <trip id="veh251" depart="1214.23" departLane="best" from="-4596990#3" to="374344535#0" type="passenger"/>
    <trip id="veh252" depart="1219.07" departLane="best" from="551121709#0" to="-610561277#0" type="passenger"/>
    <trip id="veh253" depart="1223.91" departLane="best" from="378173217#0" to="-23735661#2" type="passenger"/>
    <trip id="veh254" depart="1228.74" departLane="best" from="374621843#1" to="34956511#3" type="passenger"/>
    <trip id="veh255" depart="1233.58" departLane="best" from="-23707866#0" to="42732336#7" type="passenger"/>
    <trip id="veh256" depart="1238.42" departLane="best" from="4596986#4" to="332164879#0" type="passenger"/>
    <trip id="veh257" depart="1243.26" departLane="best" from="-24700553#0" to="598074991#0" type="passenger"/>
    <trip id="veh258" depart="1248.09" departLane="best" from="4402642" to="-5133252#0" type="passenger"/>
    <trip id="veh259" depart="1252.93" departLane="best" from="147664176#0" to="-549316653#0" type="passenger"/>
    <trip id="veh260" depart="1257.77" departLane="best" from="23735661#4" to="-5133251#3" type="passenger"/>
    <trip id="veh261" depart="1262.61" departLane="best" from="4596986#4" to="4543570#2" type="passenger"/>
    <trip id="veh262" depart="1267.44" departLane="best" from="-23707866#4" to="53543399#0" type="passenger"/>
    <trip id="veh263" depart="1272.28" departLane="best" from="374152381#1" to="4543574#5" type="passenger"/>
    <trip id="veh264" depart="1277.12" departLane="best" from="377644586#0" to="147664165#1" type="passenger"/>
    <trip id="veh265" depart="1281.96" departLane="best" from="42732303#0" to="551121709#1" type="passenger"/>
    <trip id="veh266" depart="1286.80" departLane="best" from="-4396919#2" to="4402643" type="passenger"/>
    <trip id="veh267" depart="1291.63" departLane="best" from="25278674#4" to="175298126#5" type="passenger"/>
    <trip id="veh268" depart="1296.47" departLane="best" from="15224672#0" to="377644587#8" type="passenger"/>
    <trip id="veh269" depart="1301.31" departLane="best" from="-4396910#2" to="4594143" type="passenger"/>
    <trip id="veh270" depart="1306.15" departLane="best" from="4594805#0" to="-24700553#0" type="passenger"/>
    <trip id="veh271" depart="1310.98" departLane="best" from="4597032#4" to="-4383365#0" type="passenger"/>
    <trip id="veh272" depart="1315.82" departLane="best" from="180021208#0" to="333607513#4" type="passenger"/>
    <trip id="veh273" depart="1320.66" departLane="best" from="-53542195" to="-172922877#0" type="passenger"/>
    <trip id="veh274" depart="1325.50" departLane="best" from="4596986#5" to="-374344533#1" type="passenger"/>
    <trip id="veh275" depart="1330.33" departLane="best" from="-378173217#1" to="4396910#1" type="passenger"/>
    <trip id="veh276" depart="1335.17" departLane="best" from="-4597039#1" to="4596994#0" type="passenger"/>
    <trip id="veh277" depart="1340.01" departLane="best" from="376545735#0" to="-4594805#1" type="passenger"/>