<?xml version="1.0" encoding="UTF-8"?>

<!-- generated on Sat Dec  8 18:09:53 2018 by SUMO polyconvert Version 0.30.0
<?xml version="1.0" encoding="UTF-8"?>

<configuration xmlns:xsi="http://www.w3.org/2001/XMLSchema-instance" xsi:noNamespaceSchemaLocation="http://sumo.dlr.de/xsd/polyconvertConfiguration.xsd">

    <input>
        <net-file value="/home/jordan/Downloads/sumo-0.30.0/tools/2018-12-08-18-09-47/osm.net.xml"/>
        <osm-files value="osm_bbox.osm.xml"/>
        <osm.keep-full-type value="true"/>
        <type-file value="/home/jordan/Downloads/sumo-0.30.0/data/typemap/osmPolyconvert.typ.xml"/>
    </input>

    <output>
        <output-file value="/home/jordan/Downloads/sumo-0.30.0/tools/2018-12-08-18-09-47/osm.poly.xml"/>
    </output>

    <processing>
        <poi-layer-offset value="5"/>
    </processing>

    <report>
        <verbose value="true"/>
    </report>

</configuration>
-->

<additional xmlns:xsi="http://www.w3.org/2001/XMLSchema-instance" xsi:noNamespaceSchemaLocation="http://sumo.dlr.de/xsd/additional_file.xsd">
    <location netOffset="-387549.92,-5821021.86" convBoundary="-6523.94,-5641.01,19355.51,11275.20" origBoundary="13.242202,52.477280,13.628703,52.627610" projParameter="+proj=utm +zone=33 +ellps=WGS84 +datum=WGS84 +units=m +no_defs"/>

    <poly id="100406200" type="landuse.residential" color="235,235,227" fill="1" layer="-3.00" shape="2579.63,1963.39 2585.01,1969.93 2600.94,1989.29 2621.76,2014.36 2623.15,2016.07 2624.61,2017.86 2631.19,2025.91 2642.28,2039.50 2642.74,2040.05 2730.32,2146.88 2785.48,2214.75 2770.22,2214.66 2731.65,2208.97 2672.29,2198.57 2610.84,2182.14 2601.24,2179.44 2595.68,2177.49 2571.10,2165.02 2543.92,2153.33 2539.05,2141.89 2500.45,2125.54 2493.44,2123.65 2486.81,2120.70 2480.69,2116.77 2479.10,2118.48 2473.08,2112.86 2455.72,2104.12 2452.20,2107.88 2444.99,2100.50 2437.46,2106.85 2427.48,2101.30 2397.66,2068.70 2386.98,2079.51 2371.60,2069.40 2345.36,2051.99 2345.02,2050.39 2343.47,2049.37 2341.87,2049.67 2327.78,2040.34 2334.86,2033.05 2340.45,2027.28 2343.35,2024.28 2349.75,2017.67 2357.92,2026.41 2359.56,2028.17 2361.44,2030.18 2368.42,2037.65 2384.57,2054.96 2389.63,2050.67 2399.51,2041.29 2404.03,2036.99 2387.19,2019.32 2376.64,2008.26 2367.80,1998.99 2373.59,1992.98 2376.91,1989.53 2380.67,1985.62 2395.11,1970.63 2400.63,1964.90 2406.59,1958.72 2413.93,1951.13 2416.61,1948.37 2425.42,1939.27 2426.78,1937.86 2430.51,1934.00 2436.51,1927.80 2443.64,1920.44 2447.67,1916.28 2452.81,1910.96 2459.76,1903.79 2465.51,1897.84 2475.17,1887.86 2482.68,1880.08 2491.34,1871.11 2498.15,1864.06 2504.40,1871.69 2512.31,1881.33 2524.71,1896.45 2529.80,1902.66 2532.17,1905.54 2537.25,1911.74 2556.27,1934.86 2566.23,1947.03 2567.92,1949.09 2576.02,1958.98 2579.38,1963.08 2579.63,1963.39"/>
    <poly id="100407647" type="landuse.residential" color="235,235,227" fill="1" layer="-3.00" shape="2026.31,1350.60 2018.74,1350.08 2011.16,1349.57 2001.73,1348.94 1992.30,1348.32 1983.28,1347.74 1965.44,1367.83 1947.52,1388.02 1946.27,1389.44 1954.49,1396.75 1956.28,1397.02 1961.20,1397.80 1988.94,1402.19 2000.23,1388.89 2008.49,1389.43 2008.15,1396.92 2013.34,1400.03 2015.98,1402.44 2016.79,1403.16 2023.84,1409.58 2019.16,1416.81 2018.35,1418.06 2014.40,1424.16 2016.85,1426.26 2034.00,1440.03 2032.77,1448.06 2049.49,1449.83 2049.33,1452.59 2066.76,1466.54 2068.51,1467.95 2069.69,1478.14 2070.85,1487.91 2073.82,1512.35 2070.65,1511.85 2060.02,1510.14 2056.71,1509.60 2044.12,1507.58 2042.91,1507.39 2039.89,1526.51 2037.90,1539.00 2046.40,1540.34 2054.89,1541.66 2063.42,1542.99 2071.97,1544.32 2080.56,1545.67 2089.15,1547.02 2100.18,1548.74 2111.22,1550.46 2113.43,1550.78 2113.17,1548.97 2111.03,1532.27 2108.89,1515.57 2105.79,1489.72 2110.62,1489.12 2109.35,1478.92 2108.91,1475.31 2104.07,1440.23 2102.11,1427.97 2097.31,1402.04 2094.56,1383.57 2093.68,1372.17 2093.18,1355.05 2056.22,1352.64 2048.77,1352.14 2041.33,1351.63 2033.82,1351.12 2026.31,1350.60"/>
    <poly id="100409404" type="landuse.residential" color="235,235,227" fill="1" layer="-3.00" shape="1952.01,1851.19 1955.76,1849.55 1968.63,1843.93 1991.81,1861.19 2024.29,1885.34 2027.15,1893.61 2027.28,1893.94 2031.48,1905.64 2031.74,1906.36 2033.13,1910.36 2036.98,1921.46 2040.83,1932.38 2046.03,1947.13 2048.90,1955.17 2050.76,1960.37 2051.33,1961.97 2052.50,1961.53 2054.28,1966.40 2054.45,1966.87 2062.12,1980.43 2069.74,1977.68 2077.61,1997.90 2073.55,2002.04 2071.72,2003.92 2058.44,2017.48 2052.90,2012.10 2047.37,2006.70 2036.18,1995.82 2029.34,1988.85 2022.19,1982.03 2015.04,1975.22 2010.34,1970.59 2005.64,1965.97 1999.67,1960.11 1993.71,1954.24 1988.06,1948.51 1984.26,1944.67 1982.75,1940.34 1977.54,1925.41 1971.57,1908.31 1966.47,1893.40 1961.12,1877.78 1960.95,1877.29 1960.42,1875.74 1959.22,1872.24 1957.63,1867.59 1953.33,1855.03 1952.01,1851.19"/>
    <poly id="100410151" type="landuse.residential" color="235,235,227" fill="1" layer="-3.00" shape="2195.85,1783.29 2197.81,1786.22 2214.91,1823.16 2205.56,1826.48 2193.90,1830.63 2183.02,1834.50 2179.52,1835.75 2177.44,1836.49 2159.28,1842.95 2112.01,1859.77 2098.13,1824.11 2090.41,1804.49 2085.82,1792.79 2093.59,1789.40 2096.74,1788.02 2108.18,1783.03 2116.12,1779.56 2118.96,1778.31 2128.74,1774.04 2134.29,1771.61 2143.14,1767.75 2149.27,1765.08 2156.29,1762.02 2164.27,1758.52 2176.95,1752.98 2180.95,1751.23 2185.88,1762.87 2186.85,1762.37 2195.85,1783.29"/>
    <poly id="102788245" type="building.apartments" color="255,230,230" fill="1" layer="-1.00" shape="1210.18,1498.55 1210.85,1496.88 1211.76,1497.00 1216.11,1488.04 1217.43,1484.18 1222.73,1486.19 1227.86,1488.19 1237.97,1491.96 1250.40,1496.76 1246.71,1503.83 1243.02,1510.91 1222.30,1503.10 1210.18,1498.55"/>
    <poly id="102788248" type="building.apartments" color="255,230,230" fill="1" layer="-1.00" shape="1219.33,1462.62 1217.01,1461.42 1215.73,1464.79 1218.04,1465.87 1219.33,1462.62"/>
    <poly id="102788250" type="building.yes" color="255,230,230" fill="1" layer="-1.00" shape="1322.67,1305.51 1322.70,1305.26 1322.81,1305.04 1328.69,1297.12 1328.92,1296.98 1329.17,1296.93 1329.43,1296.96 1329.67,1297.08 1334.66,1300.77 1334.95,1300.38 1335.12,1300.49 1334.82,1300.89 1338.67,1303.74 1338.96,1303.34 1339.13,1303.46 1338.83,1303.86 1347.11,1309.99 1347.26,1310.14 1347.35,1310.34 1347.38,1310.55 1347.35,1310.78 1347.25,1310.97 1341.51,1318.82 1341.33,1318.99 1341.11,1319.11 1340.86,1319.15 1340.62,1319.11 1340.40,1318.99 1332.17,1312.90 1331.87,1313.31 1331.71,1313.18 1332.01,1312.78 1328.15,1309.92 1327.86,1310.33 1327.69,1310.21 1327.99,1309.80 1322.84,1305.97 1322.72,1305.75 1322.67,1305.51"/>
    <poly id="102788252" type="building.apartments" color="255,230,230" fill="1" layer="-1.00" shape="1222.30,1503.10 1210.18,1498.55 1205.60,1496.82 1204.17,1500.65 1208.74,1502.33 1203.98,1515.49 1212.05,1518.57 1214.05,1519.31 1219.05,1506.27 1220.92,1506.96 1222.30,1503.10"/>
    <poly id="102788256" type="building.yes" color="255,230,230" fill="1" layer="-1.00" shape="1217.40,1437.10 1207.16,1433.13 1204.00,1431.98 1202.34,1436.30 1200.35,1441.52 1198.35,1446.73 1195.92,1445.78 1194.61,1449.26 1210.41,1455.36 1217.40,1437.10"/>
    <poly id="103996317" type="building.detached" color="255,230,230" fill="1" layer="-1.00" shape="965.55,1774.57 964.37,1776.55 969.15,1779.88 977.85,1766.48 970.28,1761.64 965.99,1767.76 962.25,1765.56 959.06,1770.38 965.55,1774.57"/>
    <poly id="104393861" type="building.yes" color="255,230,230" fill="1" layer="-1.00" shape="1295.81,1687.67 1297.02,1687.50 1300.71,1683.81 1300.21,1683.34 1301.97,1681.56 1303.72,1679.80 1304.21,1680.29 1306.82,1677.67 1306.68,1676.48 1305.01,1674.84 1301.64,1671.53 1299.89,1669.82 1298.68,1669.76 1288.93,1679.47 1288.89,1680.68 1295.81,1687.67"/>
    <poly id="104393862" type="building.yes" color="255,230,230" fill="1" layer="-1.00" shape="1312.46,1906.11 1322.40,1896.44 1332.32,1886.75 1331.72,1882.46 1319.39,1876.28 1307.06,1870.12 1299.51,1878.66 1303.66,1880.73 1303.54,1880.98 1306.27,1882.45 1306.60,1881.88 1312.19,1884.55 1311.80,1885.34 1315.14,1887.01 1316.38,1888.57 1313.54,1892.85 1312.64,1892.53 1310.88,1894.17 1309.69,1892.91 1307.33,1895.21 1308.65,1896.58 1305.41,1899.40 1312.46,1906.11"/>
    <poly id="104393864" type="building.yes" color="255,230,230" fill="1" layer="-1.00" shape="1260.76,1846.83 1252.26,1842.53 1243.75,1838.25 1227.27,1875.19 1227.16,1875.41 1242.84,1882.65 1248.36,1871.49 1248.45,1871.32 1237.20,1866.04 1238.21,1864.07 1239.21,1863.90 1243.02,1855.50 1242.42,1854.48 1243.26,1852.83 1254.92,1858.62 1260.76,1846.83"/>
    <poly id="104393865" type="building.yes" color="255,230,230" fill="1" layer="-1.00" shape="1212.93,1942.08 1215.11,1937.41 1215.42,1936.75 1203.19,1930.84 1203.99,1929.04 1196.47,1925.33 1193.22,1932.60 1211.84,1941.57 1212.93,1942.08"/>
    <poly id="104393866" type="building.apartments" color="255,230,230" fill="1" layer="-1.00" shape="1142.07,1850.91 1147.01,1845.29 1147.15,1845.45 1149.15,1843.21 1148.99,1843.07 1153.95,1837.40 1145.63,1829.88 1139.63,1836.62 1133.62,1843.35 1142.07,1850.91"/>
    <poly id="104961429" type="building.yes" color="255,230,230" fill="1" layer="-1.00" shape="1147.27,1510.17 1147.17,1510.47 1144.15,1509.35 1143.46,1511.24 1146.48,1512.34 1146.41,1512.54 1148.85,1513.61 1149.63,1511.19 1147.27,1510.17"/>
    <poly id="104971175" type="building.apartments" color="255,230,230" fill="1" layer="-1.00" shape="1190.89,1846.13 1165.13,1823.19 1157.55,1816.48 1151.59,1823.18 1145.63,1829.88 1153.95,1837.40 1155.28,1838.60 1164.16,1829.10 1165.96,1830.72 1165.53,1831.20 1171.01,1836.01 1171.50,1835.61 1173.06,1837.01 1169.36,1841.43 1179.12,1850.04 1182.65,1846.21 1184.22,1846.62 1189.00,1850.79 1190.89,1846.13"/>
    <poly id="104971176" type="building.yes" color="255,230,230" fill="1" layer="-1.00" shape="1154.14,1861.60 1157.97,1857.22 1169.59,1867.63 1165.76,1871.94 1154.14,1861.60"/>
    <poly id="104971177" type="building.yes" color="255,230,230" fill="1" layer="-1.00" shape="1147.73,1880.10 1143.65,1876.45 1152.10,1866.78 1150.49,1865.26 1150.12,1865.72 1141.50,1858.12 1141.98,1857.62 1140.03,1855.92 1134.38,1862.30 1135.25,1863.07 1132.40,1866.34 1121.72,1856.76 1127.67,1850.05 1133.62,1843.35 1142.07,1850.91 1154.14,1861.60 1165.76,1871.94 1175.55,1880.69 1174.55,1882.96 1173.06,1886.30 1164.81,1879.10 1165.23,1878.57 1161.51,1875.07 1155.97,1881.23 1156.22,1881.47 1153.12,1884.88 1147.73,1880.10"/>
    <poly id="104971178" type="building.apartments" color="255,230,230" fill="1" layer="-1.00" shape="1083.08,1550.29 1081.33,1554.92 1081.00,1555.78 1073.74,1553.16 1073.92,1552.68 1071.63,1551.94 1068.55,1559.92 1074.66,1562.18 1073.13,1566.57 1054.59,1559.85 1057.81,1551.01 1061.02,1542.18 1083.08,1550.29"/>
    <poly id="104971181" type="building.apartments" color="255,230,230" fill="1" layer="-1.00" shape="1189.13,1810.80 1175.59,1804.01 1173.15,1809.11 1172.07,1810.08 1167.18,1805.63 1165.67,1807.42 1166.35,1808.09 1161.56,1813.32 1160.88,1812.75 1157.55,1816.48 1165.13,1823.19 1170.83,1816.69 1169.38,1815.50 1170.88,1813.74 1173.95,1816.32 1174.93,1815.26 1175.90,1814.21 1185.10,1818.51 1186.59,1815.55 1186.71,1815.63 1189.13,1810.80"/>
    <poly id="104971182" type="building.yes" color="255,230,230" fill="1" layer="-1.00" shape="1252.41,1759.44 1267.06,1767.84 1268.92,1764.48 1271.86,1759.29 1273.55,1756.30 1258.88,1747.96 1252.41,1759.44"/>
    <poly id="104971183" type="building.detached" color="255,230,230" fill="1" layer="-1.00" shape="1066.51,1778.39 1059.65,1776.48 1058.25,1781.49 1065.10,1783.41 1066.51,1778.39"/>
    <poly id="104971184" type="building.detached" color="255,230,230" fill="1" layer="-1.00" shape="1019.42,1776.39 1014.52,1784.72 1017.93,1786.86 1022.98,1778.50 1019.42,1776.39"/>
    <poly id="104971185" type="building.apartments" color="255,230,230" fill="1" layer="-1.00" shape="1198.33,1829.96 1189.96,1825.73 1190.62,1824.39 1183.83,1820.95 1185.10,1818.51 1186.59,1815.55 1186.71,1815.63 1189.13,1810.80 1190.07,1811.25 1190.24,1810.83 1192.37,1810.67 1193.39,1812.31 1193.19,1812.81 1196.40,1814.48 1199.74,1816.08 1199.95,1815.66 1202.02,1815.54 1203.01,1817.15 1202.84,1817.60 1203.67,1818.18 1198.33,1829.96"/>
    <poly id="104971188" type="building.detached" color="255,230,230" fill="1" layer="-1.00" shape="1046.69,1772.15 1039.46,1769.81 1038.01,1774.29 1045.24,1776.63 1046.69,1772.15"/>
    <poly id="104971189" type="building.apartments" color="255,230,230" fill="1" layer="-1.00" shape="1097.49,1547.87 1094.79,1554.55 1083.08,1550.29 1061.02,1542.18 1064.07,1534.09 1065.66,1529.88 1067.01,1525.89 1080.12,1530.76 1079.19,1533.57 1079.41,1533.68 1079.10,1534.51 1078.44,1534.26 1078.51,1534.13 1077.85,1533.91 1077.03,1536.31 1077.26,1536.39 1076.99,1537.24 1076.47,1537.09 1074.69,1541.17 1077.13,1542.04 1077.44,1541.37 1077.91,1541.56 1077.80,1541.83 1081.28,1543.04 1081.44,1542.61 1081.32,1542.51 1081.52,1542.10 1082.20,1542.38 1082.11,1542.52 1087.43,1544.41 1087.31,1544.75 1089.87,1545.70 1090.06,1545.22 1097.49,1547.87"/>
    <poly id="104971190" type="building.detached" color="255,230,230" fill="1" layer="-1.00" shape="1063.18,1772.90 1068.19,1774.30 1070.05,1767.66 1065.05,1766.26 1063.18,1772.90"/>
    <poly id="105279436" type="building.yes" color="255,230,230" fill="1" layer="-1.00" shape="1299.99,1273.99 1327.35,1235.12 1316.96,1226.76 1318.35,1225.09 1314.82,1222.33 1304.65,1234.93 1314.10,1242.61 1301.94,1257.77 1297.02,1253.92 1292.87,1259.06 1288.18,1255.18 1273.59,1243.31 1269.77,1248.01 1276.31,1253.45 1266.68,1265.11 1277.57,1274.24 1285.29,1264.66 1287.67,1266.46 1288.86,1264.87 1299.99,1273.99"/>
    <poly id="105481031" type="landuse.meadow" color="194,194,130" fill="1" layer="-3.00" shape="1141.88,1603.07 1138.15,1601.61 1140.31,1595.91 1144.05,1596.99 1141.88,1603.07"/>
    <poly id="105481033" type="landuse.meadow" color="194,194,130" fill="1" layer="-3.00" shape="1125.18,1590.73 1129.07,1591.85 1127.24,1597.33 1123.27,1596.00 1125.18,1590.73"/>
    <poly id="105731054" type="building.yes" color="255,230,230" fill="1" layer="-1.00" shape="1326.22,1165.72 1326.37,1166.60 1337.12,1173.62 1337.88,1173.66 1340.81,1168.66 1328.95,1161.15 1327.42,1163.70 1326.22,1165.72"/>
    <poly id="105731056" type="building.yes" color="255,230,230" fill="1" layer="-1.00" shape="1342.83,1169.96 1346.74,1172.39 1361.82,1148.73 1356.75,1145.00 1351.68,1141.27 1345.06,1151.41 1344.67,1151.99 1351.39,1156.09 1347.34,1162.65 1346.73,1162.27 1346.12,1162.41 1344.86,1164.38 1345.02,1165.01 1345.64,1165.41 1342.83,1169.96"/>
    <poly id="105804777" type="building.residential" color="255,230,230" fill="1" layer="-1.00" shape="3176.94,1213.20 3176.58,1213.07 3164.96,1207.97 3175.80,1185.59 3188.16,1191.06 3189.17,1191.54 3186.96,1196.90 3184.54,1195.84 3176.94,1213.20"/>
    <poly id="105804790" type="building.residential" color="255,230,230" fill="1" layer="-1.00" shape="3168.82,1244.65 3173.86,1233.30 3178.95,1235.55 3178.83,1236.15 3183.78,1237.94 3184.61,1236.20 3190.09,1238.70 3184.35,1251.54 3168.82,1244.65"/>
    <poly id="105804792" type="building.residential" color="255,230,230" fill="1" layer="-1.00" shape="3152.91,1237.60 3151.88,1234.98 3164.96,1207.97 3176.58,1213.07 3174.10,1218.73 3173.58,1218.49 3169.34,1228.17 3169.94,1230.53 3174.08,1232.75 3173.86,1233.30 3168.82,1244.65 3152.91,1237.60"/>
    <poly id="105806545" type="building.university" color="255,230,230" fill="1" layer="-1.00" shape="2845.82,1490.51 2832.31,1515.54 2817.82,1536.36 2800.57,1553.13 2798.62,1551.40 2834.97,1484.79 2845.82,1490.51"/>
    <poly id="106230392" type="building.apartments" color="255,230,230" fill="1" layer="-1.00" shape="1111.81,1489.82 1114.10,1483.75 1100.82,1478.70 1098.49,1480.42 1097.37,1480.02 1100.54,1470.42 1089.30,1466.18 1088.90,1467.38 1087.08,1472.89 1084.87,1479.61 1111.81,1489.82"/>
    <poly id="106287083" type="landuse.meadow" color="194,194,130" fill="1" layer="-3.00" shape="1095.09,1438.53 1096.81,1433.65 1100.35,1435.06 1098.63,1439.75 1095.09,1438.53"/>
    <poly id="106287084" type="landuse.residential" color="235,235,227" fill="1" layer="-3.00" shape="1093.36,1454.10 1137.81,1471.02 1139.19,1467.51 1139.67,1467.69 1143.94,1456.40 1144.49,1456.62 1144.68,1456.16 1144.14,1455.87 1145.46,1452.39 1138.70,1449.80 1132.89,1447.57 1112.57,1439.69 1100.35,1435.06 1096.81,1433.65 1095.09,1438.53 1094.21,1441.00 1090.04,1452.77 1093.36,1454.10"/>
    <poly id="106287085" type="landuse.meadow" color="194,194,130" fill="1" layer="-3.00" shape="1090.04,1452.77 1094.21,1441.00 1097.72,1442.23 1096.86,1444.57 1093.36,1454.10 1090.04,1452.77"/>
    <poly id="106311083" type="man_made.pier" color="255,230,230" fill="0" layer="-1.00" shape="1400.24,962.23 1391.45,949.14"/>
    <poly id="107166433" type="landuse.meadow" color="194,194,130" fill="1" layer="-3.00" shape="2358.39,791.22 2377.10,766.29 2355.49,753.84 2340.22,780.88 2358.39,791.22"/>
    <poly id="107166434" type="amenity.parking" color="184,184,179" fill="1" layer="-1.00" shape="2157.53,747.72 2160.36,749.31 2176.28,758.22 2282.03,817.37 2288.31,820.88 2277.60,839.92 2271.81,850.12 2265.36,846.46 2247.54,836.33 2149.52,780.10 2141.79,775.66 2157.53,747.72"/>
    <poly id="107166434#1" type="building.garages" color="255,230,230" fill="1" layer="-1.00" shape="2157.53,747.72 2160.36,749.31 2176.28,758.22 2282.03,817.37 2288.31,820.88 2277.60,839.92 2271.81,850.12 2265.36,846.46 2247.54,836.33 2149.52,780.10 2141.79,775.66 2157.53,747.72"/>
    <poly id="107166435" type="building.yes" color="255,230,230" fill="1" layer="-1.00" shape="2202.19,744.73 2196.14,755.48 2228.81,773.78 2261.47,792.07 2267.52,781.32 2234.85,763.02 2202.19,744.73"/>
    <poly id="107166439" type="landuse.meadow" color="194,194,130" fill="1" layer="-3.00" shape="2338.75,818.83 2356.48,793.41 2338.70,783.57 2323.68,810.17 2338.75,818.83"/>
    <poly id="107166440" type="building.yes" color="255,230,230" fill="1" layer="-1.00" shape="2271.81,850.12 2303.89,868.57 2334.17,827.29 2338.62,821.24 2300.17,799.63 2294.14,810.39 2323.89,826.21 2302.95,853.85 2277.60,839.92 2271.81,850.12"/>
    <poly id="107166443" type="building.office" color="255,230,230" fill="1" layer="-1.00" shape="2205.37,662.85 2181.95,704.45 2193.31,710.82 2200.00,698.93 2210.04,681.10 2244.12,700.19 2234.08,718.02 2217.05,708.47 2210.35,720.36 2247.27,741.04 2284.19,761.72 2290.88,749.84 2273.84,740.29 2283.88,722.47 2317.96,741.55 2307.92,759.38 2301.23,771.26 2312.59,777.63 2336.01,736.03 2324.65,729.66 2290.57,710.58 2300.61,692.75 2334.69,711.84 2346.05,718.21 2352.74,706.32 2341.38,699.95 2307.30,680.87 2317.44,662.86 2351.56,681.87 2362.94,688.21 2366.12,682.55 2376.16,664.72 2389.55,640.95 2399.58,623.12 2403.09,616.90 2391.71,610.58 2357.59,591.56 2367.53,573.90 2401.61,592.98 2412.97,599.35 2419.66,587.47 2408.30,581.11 2374.22,562.01 2384.26,544.18 2418.34,563.28 2429.70,569.64 2453.12,528.04 2441.76,521.68 2435.07,533.57 2425.03,551.39 2390.95,532.30 2400.99,514.47 2418.03,524.01 2424.72,512.13 2350.88,470.76 2344.19,482.65 2361.23,492.20 2351.19,510.03 2317.11,490.94 2327.15,473.11 2333.84,461.22 2322.48,454.85 2299.06,496.45 2344.50,521.92 2317.78,569.36 2277.64,640.66 2250.81,688.30 2205.37,662.85"/>
    <poly id="108058535" type="building.yes" color="255,230,230" fill="1" layer="-1.00" shape="1342.33,1538.88 1343.27,1537.91 1348.56,1532.64 1363.77,1540.59 1362.74,1541.64 1357.34,1547.03 1349.38,1539.16 1345.82,1542.40 1342.33,1538.88"/>
    <poly id="108090827" type="leisure.playground" color="207,245,201" fill="1" layer="-2.00" shape="1128.48,1512.47 1122.51,1528.34 1092.91,1517.94 1098.73,1501.51 1128.48,1512.47"/>
    <poly id="108543581" type="amenity.school" color="237,199,199" fill="1" layer="-1.00" shape="1107.44,1540.63 1067.01,1525.89 1063.61,1524.77 1080.75,1478.03 1084.09,1479.37 1084.87,1479.61 1111.81,1489.82 1124.42,1494.58 1132.01,1497.43 1135.80,1487.14 1140.38,1489.05 1151.20,1493.24 1157.48,1476.78 1160.62,1468.51 1163.77,1460.24 1171.36,1463.24 1181.66,1467.15 1189.28,1470.10 1182.95,1486.53 1183.33,1488.33 1177.55,1503.77 1150.85,1574.97 1123.88,1565.14 1101.14,1556.86 1107.44,1540.63"/>
    <poly id="108855212" type="building.apartments" color="255,230,230" fill="1" layer="-1.00" shape="1135.98,1893.55 1147.73,1880.10 1143.65,1876.45 1142.34,1875.27 1135.63,1882.68 1136.08,1882.98 1134.47,1884.75 1132.70,1883.19 1133.06,1882.78 1123.70,1874.45 1128.24,1869.22 1129.28,1870.10 1132.40,1866.34 1121.72,1856.76 1115.69,1863.53 1109.67,1870.30 1134.50,1892.27 1135.98,1893.55"/>
    <poly id="111535718" type="building.yes" color="255,230,230" fill="1" layer="-1.00" shape="1357.30,1607.75 1338.51,1627.06 1334.64,1623.13 1339.34,1618.18 1338.93,1617.81 1341.05,1615.66 1341.52,1616.05 1344.01,1613.35 1335.20,1604.54 1332.57,1607.15 1333.01,1607.50 1330.97,1609.76 1330.52,1609.40 1325.72,1614.26 1321.91,1610.48 1340.75,1591.15 1349.03,1599.45 1357.30,1607.75"/>
    <poly id="111535720" type="building.yes" color="255,230,230" fill="1" layer="-1.00" shape="1340.31,1564.11 1334.52,1558.31 1328.74,1552.52 1342.33,1538.88 1345.82,1542.40 1343.40,1544.99 1342.99,1544.51 1341.28,1546.32 1349.72,1554.71 1349.40,1554.98 1340.31,1564.11"/>
    <poly id="111535722" type="building.yes" color="255,230,230" fill="1" layer="-1.00" shape="1375.35,1599.19 1380.75,1604.61 1386.15,1610.01 1394.55,1601.44 1400.90,1595.08 1398.02,1592.42 1394.97,1595.59 1395.31,1595.96 1393.48,1597.83 1384.91,1589.65 1384.46,1590.03 1375.35,1599.19"/>
    <poly id="111535723" type="building.yes" color="255,230,230" fill="1" layer="-1.00" shape="1363.63,1587.40 1372.71,1578.12 1368.57,1573.95 1369.04,1573.40 1366.72,1571.27 1366.24,1571.74 1360.55,1565.87 1351.29,1575.13 1357.46,1581.27 1363.63,1587.40"/>
    <poly id="111535724" type="building.yes" color="255,230,230" fill="1" layer="-1.00" shape="1419.36,1612.60 1428.06,1620.74 1433.85,1614.51 1439.65,1608.29 1429.92,1599.15 1424.60,1605.06 1425.05,1605.50 1422.54,1608.24 1419.77,1605.65 1420.24,1605.16 1417.36,1602.63 1417.88,1602.25 1413.58,1598.22 1409.17,1602.89 1419.36,1612.60"/>
    <poly id="111535725" type="building.yes" color="255,230,230" fill="1" layer="-1.00" shape="1350.07,1492.91 1340.64,1487.97 1348.32,1473.37 1357.84,1478.36 1353.96,1485.63 1350.07,1492.91"/>
    <poly id="111535726" type="building.yes" color="255,230,230" fill="1" layer="-1.00" shape="1269.52,1637.59 1271.54,1633.72 1272.85,1633.67 1276.12,1635.35 1275.86,1635.82 1278.22,1638.80 1285.49,1632.60 1283.24,1630.33 1282.38,1630.41 1282.81,1631.01 1282.39,1631.35 1279.14,1627.72 1279.49,1627.17 1280.11,1625.76 1270.13,1620.67 1269.15,1622.57 1268.17,1624.48 1269.23,1625.02 1267.22,1629.07 1266.09,1628.42 1264.11,1632.24 1269.52,1637.59"/>
    <poly id="111535727" type="building.yes" color="255,230,230" fill="1" layer="-1.00" shape="1363.63,1587.40 1369.49,1593.30 1375.35,1599.19 1384.46,1590.03 1378.88,1584.33 1379.41,1583.92 1377.09,1581.62 1376.70,1582.14 1372.71,1578.12 1363.63,1587.40"/>
    <poly id="111535729" type="building.yes" color="255,230,230" fill="1" layer="-1.00" shape="1470.15,1614.33 1478.04,1622.41 1482.92,1617.41 1484.27,1618.74 1485.69,1617.13 1484.58,1616.06 1489.99,1610.35 1481.79,1601.86 1475.97,1608.10 1470.15,1614.33"/>
    <poly id="111535733" type="building.yes" color="255,230,230" fill="1" layer="-1.00" shape="1432.33,1578.10 1451.25,1595.85 1457.14,1589.59 1463.04,1583.33 1459.09,1579.56 1450.40,1571.42 1446.69,1568.00 1443.35,1571.32 1448.26,1576.04 1448.77,1575.54 1450.63,1577.18 1447.83,1580.02 1448.25,1580.59 1445.74,1583.32 1443.17,1580.98 1443.61,1580.56 1440.54,1577.80 1440.95,1577.33 1436.71,1573.37 1432.33,1578.10"/>
    <poly id="111535735" type="building.yes" color="255,230,230" fill="1" layer="-1.00" shape="1285.49,1632.60 1278.22,1638.80 1277.06,1639.89 1279.33,1642.11 1280.51,1642.29 1281.19,1642.92 1279.80,1644.20 1284.43,1649.01 1285.76,1647.71 1286.69,1648.68 1285.43,1649.90 1286.69,1651.11 1286.70,1652.33 1287.33,1652.94 1288.53,1652.93 1290.34,1651.12 1291.30,1652.07 1289.41,1654.04 1294.28,1658.79 1295.68,1657.38 1296.46,1658.11 1295.89,1658.62 1295.84,1659.95 1297.02,1661.15 1305.44,1652.89 1304.12,1651.69 1303.10,1651.62 1301.62,1653.08 1297.58,1649.05 1299.31,1647.31 1299.30,1646.18 1296.05,1642.94 1292.78,1639.70 1291.45,1639.88 1289.89,1641.42 1285.81,1637.37 1287.31,1635.96 1287.08,1634.40 1285.49,1632.60"/>
    <poly id="111535740" type="building.yes" color="255,230,230" fill="1" layer="-1.00" shape="1406.37,1614.31 1406.85,1613.90 1394.55,1601.44 1386.15,1610.01 1392.44,1616.30 1405.03,1628.89 1411.33,1635.18 1414.50,1635.14 1421.28,1627.95 1428.06,1620.74 1419.36,1612.60 1414.76,1617.32 1415.21,1617.72 1413.41,1619.82 1411.83,1619.80 1406.37,1614.31"/>
    <poly id="111535742" type="building.yes" color="255,230,230" fill="1" layer="-1.00" shape="1303.90,1592.25 1291.62,1579.90 1291.63,1580.41 1290.19,1583.23 1290.01,1583.13 1289.10,1584.85 1288.20,1586.58 1288.37,1586.75 1286.90,1589.63 1286.77,1589.60 1286.65,1589.67 1286.65,1590.18 1285.14,1590.22 1285.20,1592.61 1285.05,1592.87 1294.05,1601.87 1296.66,1599.18 1299.15,1599.19 1299.14,1597.31 1301.09,1595.35 1300.89,1595.21 1303.90,1592.25"/>
    <poly id="111535744" type="building.yes" color="255,230,230" fill="1" layer="-1.00" shape="1310.17,1598.46 1313.79,1602.10 1317.91,1597.88 1314.17,1594.19 1310.17,1598.46"/>
    <poly id="111535746" type="building.yes" color="255,230,230" fill="1" layer="-1.00" shape="1501.92,1598.13 1493.40,1589.39 1487.59,1595.62 1481.79,1601.86 1489.99,1610.35 1501.47,1622.08 1505.93,1617.77 1495.97,1607.63 1503.66,1599.96 1501.92,1598.13"/>
    <poly id="111535747" type="building.yes" color="255,230,230" fill="1" layer="-1.00" shape="1458.44,1626.84 1452.62,1633.04 1446.80,1639.25 1455.16,1647.95 1456.52,1649.32 1464.28,1641.86 1471.89,1649.48 1476.42,1645.19 1458.44,1626.84"/>
    <poly id="111535748" type="building.yes" color="255,230,230" fill="1" layer="-1.00" shape="1362.02,1690.17 1365.22,1686.67 1367.30,1686.47 1367.39,1684.50 1369.75,1682.03 1371.40,1682.15 1371.72,1680.34 1372.27,1679.74 1372.09,1679.52 1374.11,1677.33 1376.37,1677.16 1376.47,1675.31 1378.71,1672.89 1380.27,1672.86 1380.10,1671.40 1381.31,1670.10 1372.04,1660.77 1371.60,1660.39 1370.79,1660.54 1361.10,1669.97 1361.06,1670.47 1360.25,1671.27 1359.69,1671.44 1354.74,1676.29 1351.47,1679.50 1354.43,1682.54 1362.02,1690.17"/>
    <poly id="111541513" type="building.yes" color="255,230,230" fill="1" layer="-1.00" shape="1204.00,1431.98 1193.69,1427.95 1192.05,1432.29 1202.34,1436.30 1204.00,1431.98"/>
    <poly id="111541514" type="building.yes" color="255,230,230" fill="1" layer="-1.00" shape="1261.26,1388.00 1260.04,1390.18 1265.30,1393.07 1266.55,1390.85 1261.26,1388.00"/>
    <poly id="111541515" type="building.yes" color="255,230,230" fill="1" layer="-1.00" shape="1266.86,1378.24 1271.84,1381.29 1275.24,1375.25 1277.74,1370.80 1277.22,1370.49 1272.92,1367.87 1269.74,1373.36 1266.86,1378.24"/>
    <poly id="111541516" type="building.yes" color="255,230,230" fill="1" layer="-1.00" shape="1262.86,1369.34 1269.74,1373.36 1272.92,1367.87 1279.28,1357.80 1272.40,1352.97 1268.24,1360.10 1262.86,1369.34"/>
    <poly id="111541517" type="building.apartments" color="255,230,230" fill="1" layer="-1.00" shape="1225.09,1500.16 1231.68,1502.48 1232.80,1502.17 1236.32,1495.65 1235.36,1494.86 1228.54,1492.22 1226.96,1492.37 1224.19,1498.69 1225.09,1500.16"/>
    <poly id="111541518" type="building.yes" color="255,230,230" fill="1" layer="-1.00" shape="1282.23,1383.66 1283.91,1380.43 1275.24,1375.25 1277.74,1370.80 1290.13,1378.46 1290.30,1378.59 1286.16,1385.81 1282.23,1383.66"/>
    <poly id="111541519" type="building.yes" color="255,230,230" fill="1" layer="-1.00" shape="1253.92,1372.62 1256.79,1367.53 1254.26,1366.07 1251.82,1364.68 1248.92,1369.75 1253.92,1372.62"/>
    <poly id="111541520" type="building.yes" color="255,230,230" fill="1" layer="-1.00" shape="1119.23,1477.52 1118.68,1478.94 1125.50,1481.50 1126.06,1480.16 1119.23,1477.52"/>
    <poly id="111541521" type="building.yes" color="255,230,230" fill="1" layer="-1.00" shape="1274.62,1398.19 1275.66,1396.20 1274.70,1395.63 1275.88,1393.59 1276.76,1394.05 1282.23,1383.66 1286.16,1385.81 1278.53,1400.35 1274.62,1398.19"/>
    <poly id="111541522" type="building.yes" color="255,230,230" fill="1" layer="-1.00" shape="1111.81,1489.82 1114.10,1483.75 1120.58,1486.16 1120.42,1486.66 1126.48,1489.06 1124.42,1494.58 1111.81,1489.82"/>
    <poly id="111547104" type="building.yes" color="255,230,230" fill="1" layer="-1.00" shape="1233.09,1915.62 1220.91,1910.30 1220.75,1909.47 1223.14,1904.02 1232.75,1908.23 1235.65,1909.51 1233.09,1915.62"/>
    <poly id="111547105" type="building.yes" color="255,230,230" fill="1" layer="-1.00" shape="1213.23,1906.26 1213.62,1905.24 1208.91,1903.29 1208.41,1901.60 1209.86,1898.28 1223.14,1904.02 1220.75,1909.47 1213.23,1906.26"/>
    <poly id="111547108" type="building.yes" color="255,230,230" fill="1" layer="-1.00" shape="1133.12,1981.00 1130.42,1978.44 1129.67,1979.18 1127.51,1977.11 1128.26,1976.34 1126.23,1974.34 1123.95,1972.24 1123.26,1972.93 1121.13,1970.85 1121.77,1970.13 1119.33,1967.66 1128.02,1958.54 1128.90,1959.33 1130.18,1958.09 1132.79,1960.60 1132.27,1961.14 1139.21,1967.78 1139.71,1967.27 1142.30,1969.74 1141.14,1971.04 1141.94,1971.89 1133.12,1981.00"/>
    <poly id="111547110" type="building.yes" color="255,230,230" fill="1" layer="-1.00" shape="1185.93,1981.48 1170.47,1997.54 1160.63,2007.57 1166.70,2013.39 1184.45,2030.40 1204.49,2011.06 1209.70,2006.04 1201.70,1997.77 1185.93,1981.48"/>
    <poly id="111547112" type="building.yes" color="255,230,230" fill="1" layer="-1.00" shape="1083.54,1838.55 1081.93,1837.19 1081.61,1837.57 1073.45,1830.72 1077.33,1825.87 1087.19,1834.37 1083.54,1838.55"/>