<?xml version="1.0" encoding="UTF-8"?>

<additional xmlns:xsi="http://www.w3.org/2001/XMLSchema-instance" xsi:noNamespaceSchemaLocation="http://sumo.dlr.de/xsd/additional_file.xsd"><poly id="b0" type="building" color="90,102,171" fill="1" layer="-1.00" shape="105,105 495,105 495,495 105,495 105,105"/>
<poly id="b1" type="building" color="90,102,171" fill="1" layer="-1.00" shape="505,105 895,105 895,495 505,495 505,105"/>
<poly id="b2" type="building" color="90,102,171" fill="1" layer="-1.00" shape="905,105 1295,105 1295,495 905,495 905,105"/>
<poly id="b3" type="building" color="90,102,171" fill="1" layer="-1.00" shape="1305,105 1695,105 1695,495 1305,495 1305,105"/>
<poly id="b4" type="building" color="90,102,171" fill="1" layer="-1.00" shape="1705,105 2095,105 2095,495 1705,495 1705,105"/>
<poly id="b5" type="building" color="90,102,171" fill="1" layer="-1.00" shape="2105,105 2495,105 2495,495 2105,495 2105,105"/>
<poly id="b6" type="building" color="90,102,171" fill="1" layer="-1.00" shape="2505,105 2895,105 2895,495 2505,495 2505,105"/>
<poly id="b7" type="building" color="90,102,171" fill="1" layer="-1.00" shape="2905,105 3295,105 3295,495 2905,495 2905,105"/>
<poly id="b8" type="building" color="90,102,171" fill="1" layer="-1.00" shape="3305,105 3695,105 3695,495 3305,495 3305,105"/>
<poly id="b9" type="building" color="90,102,171" fill="1" layer="-1.00" shape="3705,105 4095,105 4095,495 3705,495 3705,105"/>
<poly id="b10" type="building" color="90,102,171" fill="1" layer="-1.00" shape="4105,105 4495,105 4495,495 4105,495 4105,105"/>
<poly id="b11" type="building" color="90,102,171" fill="1" layer="-1.00" shape="4505,105 4895,105 4895,495 4505,495 4505,105"/>
<poly id="b12" type="building" color="90,102,171" fill="1" layer="-1.00" shape="105,505 495,505 495,895 105,895 105,505"/>
<poly id="b13" type="building" color="90,102,171" fill="1" layer="-1.00" shape="505,505 895,505 895,895 505,895 505,505"/>
<poly id="b14" type="building" color="90,102,171" fill="1" layer="-1.00" shape="905,505 1295,505 1295,895 905,895 905,505"/>
<poly id="b15" type="building" color="90,102,171" fill="1" layer="-1.00" shape="1305,505 1695,505 1695,895 1305,895 1305,505"/>
<poly id="b16" type="building" color="90,102,171" fill="1" layer="-1.00" shape="1705,505 2095,505 2095,895 1705,895 1705,505"/>
<poly id="b17" type="building" color="90,102,171" fill="1" layer="-1.00" shape="2105,505 2495,505 2495,895 2105,895 2105,505"/>
<poly id="b18" type="building" color="90,102,171" fill="1" layer="-1.00" shape="2505,505 2895,505 2895,895 2505,895 2505,505"/>
<poly id="b19" type="building" color="90,102,171" fill="1" layer="-1.00" shape="2905,505 3295,505 3295,895 2905,895 2905,505"/>
<poly id="b20" type="building" color="90,102,171" fill="1" layer="-1.00" shape="3305,505 3695,505 3695,895 3305,895 3305,505"/>
<poly id="b21" type="building" color="90,102,171" fill="1" layer="-1.00" shape="3705,505 4095,505 4095,895 3705,895 3705,505"/>
<poly id="b22" type="building" color="90,102,171" fill="1" layer="-1.00" shape="4105,505 4495,505 4495,895 4105,895 4105,505"/>
<poly id="b23" type="building" color="90,102,171" fill="1" layer="-1.00" shape="4505,505 4895,505 4895,895 4505,895 4505,505"/>
<poly id="b24" type="building" color="90,102,171" fill="1" layer="-1.00" shape="105,905 495,905 495,1295 105,1295 105,905"/>
<poly id="b25" type="building" color="90,102,171" fill="1" layer="-1.00" shape="505,905 895,905 895,1295 505,1295 505,905"/>
<poly id="b26" type="building" color="90,102,171" fill="1" layer="-1.00" shape="905,905 1295,905 1295,1295 905,1295 905,905"/>
<poly id="b27" type="building" color="90,102,171" fill="1" layer="-1.00" shape="1305,905 1695,905 1695,1295 1305,1295 1305,905"/>
<poly id="b28" type="building" color="90,102,171" fill="1" layer="-1.00" shape="1705,905 2095,905 2095,1295 1705,1295 1705,905"/>
<poly id="b29" type="building" color="90,102,171" fill="1" layer="-1.00" shape="2105,905 2495,905 2495,1295 2105,1295 2105,905"/>
<poly id="b30" type="building" color="90,102,171" fill="1" layer="-1.00" shape="2505,905 2895,905 2895,1295 2505,1295 2505,905"/>
<poly id="b31" type="building" color="90,102,171" fill="1" layer="-1.00" shape="2905,905 3295,905 3295,1295 2905,1295 2905,905"/>
<poly id="b32" type="building" color="90,102,171" fill="1" layer="-1.00" shape="3305,905 3695,905 3695,1295 3305,1295 3305,905"/>
<poly id="b33" type="building" color="90,102,171" fill="1" layer="-1.00" shape="3705,905 4095,905 4095,1295 3705,1295 3705,905"/>
<poly id="b34" type="building" color="90,102,171" fill="1" layer="-1.00" shape="4105,905 4495,905 4495,1295 4105,1295 4105,905"/>
<poly id="b35" type="building" color="90,102,171" fill="1" layer="-1.00" shape="4505,905 4895,905 4895,1295 4505,1295 4505,905"/>
<poly id="b36" type="building" color="90,102,171" fill="1" layer="-1.00" shape="105,1305 495,1305 495,1695 105,1695 105,1305"/>
<poly id="b37" type="building" color="90,102,171" fill="1" layer="-1.00" shape="505,1305 895,1305 895,1695 505,1695 505,1305"/>
<poly id="b38" type="building" color="90,102,171" fill="1" layer="-1.00" shape="905,1305 1295,1305 1295,1695 905,1695 905,1305"/>
<poly id="b39" type="building" color="90,102,171" fill="1" layer="-1.00" shape="1305,1305 1695,1305 1695,1695 1305,1695 1305,1305"/>
<poly id="b40" type="building" color="90,102,171" fill="1" layer="-1.00" shape="1705,1305 2095,1305 2095,1695 1705,1695 1705,1305"/>
<poly id="b41" type="building" color="90,102,171" fill="1" layer="-1.00" shape="2105,1305 2495,1305 2495,1695 2105,1695 2105,1305"/>
<poly id="b42" type="building" color="90,102,171" fill="1" layer="-1.00" shape="2505,1305 2895,1305 2895,1695 2505,1695 2505,1305"/>
<poly id="b43" type="building" color="90,102,171" fill="1" layer="-1.00" shape="2905,1305 3295,1305 3295,1695 2905,1695 2905,1305"/>
<poly id="b44" type="building" color="90,102,171" fill="1" layer="-1.00" shape="3305,1305 3695,1305 3695,1695 3305,1695 3305,1305"/>
<poly id="b45" type="building" color="90,102,171" fill="1" layer="-1.00" shape="3705,1305 4095,1305 4095,1695 3705,1695 3705,1305"/>
<poly id="b46" type="building" color="90,102,171" fill="1" layer="-1.00" shape="4105,1305 4495,1305 4495,1695 4105,1695 4105,1305"/>
<poly id="b47" type="building" color="90,102,171" fill="1" layer="-1.00" shape="4505,1305 4895,1305 4895,1695 4505,1695 4505,1305"/>
<poly id="b48" type="building" color="90,102,171" fill="1" layer="-1.00" shape="105,1705 495,1705 495,2095 105,2095 105,1705"/>
<poly id="b49" type="building" color="90,102,171" fill="1" layer="-1.00" shape="505,1705 895,1705 895,2095 505,2095 505,1705"/>
<poly id="b50" type="building" color="90,102,171" fill="1" layer="-1.00" shape="905,1705 1295,1705 1295,2095 905,2095 905,1705"/>
<poly id="b51" type="building" color="90,102,171" fill="1" layer="-1.00" shape="1305,1705 1695,1705 1695,2095 1305,2095 1305,1705"/>
<poly id="b52" type="building" color="90,102,171" fill="1" layer="-1.00" shape="1705,1705 2095,1705 2095,2095 1705,2095 1705,1705"/>
<poly id="b53" type="building" color="90,102,171" fill="1" layer="-1.00" shape="2105,1705 2495,1705 2495,2095 2105,2095 2105,1705"/>
<poly id="b54" type="building" color="90,102,171" fill="1" layer="-1.00" shape="2505,1705 2895,1705 2895,2095 2505,2095 2505,1705"/>
<poly id="b55" type="building" color="90,102,171" fill="1" layer="-1.00" shape="2905,1705 3295,1705 3295,2095 2905,2095 2905,1705"/>
<poly id="b56" type="building" color="90,102,171" fill="1" layer="-1.00" shape="3305,1705 3695,1705 3695,2095 3305,2095 3305,1705"/>
<poly id="b57" type="building" color="90,102,171" fill="1" layer="-1.00" shape="3705,1705 4095,1705 4095,2095 3705,2095 3705,1705"/>
<poly id="b58" type="building" color="90,102,171" fill="1" layer="-1.00" shape="4105,1705 4495,1705 4495,2095 4105,2095 4105,1705"/>
<poly id="b59" type="building" color="90,102,171" fill="1" layer="-1.00" shape="4505,1705 4895,1705 4895,2095 4505,2095 4505,1705"/>
<poly id="b60" type="building" color="90,102,171" fill="1" layer="-1.00" shape="105,2105 495,2105 495,2495 105,2495 105,2105"/>
<poly id="b61" type="building" color="90,102,171" fill="1" layer="-1.00" shape="505,2105 895,2105 895,2495 505,2495 505,2105"/>
<poly id="b62" type="building" color="90,102,171" fill="1" layer="-1.00" shape="905,2105 1295,2105 1295,2495 905,2495 905,2105"/>
<poly id="b63" type="building" color="90,102,171" fill="1" layer="-1.00" shape="1305,2105 1695,2105 1695,2495 1305,2495 1305,2105"/>
<poly id="b64" type="building" color="90,102,171" fill="1" layer="-1.00" shape="1705,2105 2095,2105 2095,2495 1705,2495 1705,2105"/>
<poly id="b65" type="building" color="90,102,171" fill="1" layer="-1.00" shape="2105,2105 2495,2105 2495,2495 2105,2495 2105,2105"/>
<poly id="b66" type="building" color="90,102,171" fill="1" layer="-1.00" shape="2505,2105 2895,2105 2895,2495 2505,2495 2505,2105"/>
<poly id="b67" type="building" color="90,102,171" fill="1" layer="-1.00" shape="2905,2105 3295,2105 3295,2495 2905,2495 2905,2105"/>
<poly id="b68" type="building" color="90,102,171" fill="1" layer="-1.00" shape="3305,2105 3695,2105 3695,2495 3305,2495 3305,2105"/>
<poly id="b69" type="building" color="90,102,171" fill="1" layer="-1.00" shape="3705,2105 4095,2105 4095,2495 3705,2495 3705,2105"/>
<poly id="b70" type="building" color="90,102,171" fill="1" layer="-1.00" shape="4105,2105 4495,2105 4495,2495 4105,2495 4105,2105"/>
<poly id="b71" type="building" color="90,102,171" fill="1" layer="-1.00" shape="4505,2105 4895,2105 4895,2495 4505,2495 4505,2105"/>
<poly id="b72" type="building" color="90,102,171" fill="1" layer="-1.00" shape="105,2505 495,2505 495,2895 105,2895 105,2505"/>
<poly id="b73" type="building" color="90,102,171" fill="1" layer="-1.00" shape="505,2505 895,2505 895,2895 505,2895 505,2505"/>
<poly id="b74" type="building" color="90,102,171" fill="1" layer="-1.00" shape="905,2505 1295,2505 1295,2895 905,2895 905,2505"/>
<poly id="b75" type="building" color="90,102,171" fill="1" layer="-1.00" shape="1305,2505 1695,2505 1695,2895 1305,2895 1305,2505"/>
<poly id="b76" type="building" color="90,102,171" fill="1" layer="-1.00" shape="1705,2505 2095,2505 2095,2895 1705,2895 1705,2505"/>
<poly id="b77" type="building" color="90,102,171" fill="1" layer="-1.00" shape="2105,2505 2495,2505 2495,2895 2105,2895 2105,2505"/>
<poly id="b78" type="building" color="90,102,171" fill="1" layer="-1.00" shape="2505,2505 2895,2505 2895,2895 2505,2895 2505,2505"/>
<poly id="b79" type="building" color="90,102,171" fill="1" layer="-1.00" shape="2905,2505 3295,2505 3295,2895 2905,2895 2905,2505"/>
<poly id="b80" type="building" color="90,102,171" fill="1" layer="-1.00" shape="3305,2505 3695,2505 3695,2895 3305,2895 3305,2505"/>
<poly id="b81" type="building" color="90,102,171" fill="1" layer="-1.00" shape="3705,2505 4095,2505 4095,2895 3705,2895 3705,2505"/>
<poly id="b82" type="building" color="90,102,171" fill="1" layer="-1.00" shape="4105,2505 4495,2505 4495,2895 4105,2895 4105,2505"/>
<poly id="b83" type="building" color="90,102,171" fill="1" layer="-1.00" shape="4505,2505 4895,2505 4895,2895 4505,2895 4505,2505"/>
<poly id="b84" type="building" color="90,102,171" fill="1" layer="-1.00" shape="105,2905 495,2905 495,3295 105,3295 105,2905"/>
<poly id="b85" type="building" color="90,102,171" fill="1" layer="-1.00" shape="505,2905 895,2905 895,3295 505,3295 505,2905"/>
<poly id="b86" type="building" color="90,102,171" fill="1" layer="-1.00" shape="905,2905 1295,2905 1295,3295 905,3295 905,2905"/>
<poly id="b87" type="building" color="90,102,171" fill="1" layer="-1.00" shape="1305,2905 1695,2905 1695,3295 1305,3295 1305,2905"/>
<poly id="b88" type="building" color="90,102,171" fill="1" layer="-1.00" shape="1705,2905 2095,2905 2095,3295 1705,3295 1705,2905"/>
<poly id="b89" type="building" color="90,102,171" fill="1" layer="-1.00" shape="2105,2905 2495,2905 2495,3295 2105,3295 2105,2905"/>
<poly id="b90" type="building" color="90,102,171" fill="1" layer="-1.00" shape="2505,2905 2895,2905 2895,3295 2505,3295 2505,2905"/>
<poly id="b91" type="building" color="90,102,171" fill="1" layer="-1.00" shape="2905,2905 3295,2905 3295,3295 2905,3295 2905,2905"/>
<poly id="b92" type="building" color="90,102,171" fill="1" layer="-1.00" shape="3305,2905 3695,2905 3695,3295 3305,3295 3305,2905"/>
<poly id="b93" type="building" color="90,102,171" fill="1" layer="-1.00" shape="3705,2905 4095,2905 4095,3295 3705,3295 3705,2905"/>
<poly id="b94" type="building" color="90,102,171" fill="1" layer="-1.00" shape="4105,2905 4495,2905 4495,3295 4105,3295 4105,2905"/>
<poly id="b95" type="building" color="90,102,171" fill="1" layer="-1.00" shape="4505,2905 4895,2905 4895,3295 4505,3295 4505,2905"/>
<poly id="b96" type="building" color="90,102,171" fill="1" layer="-1.00" shape="105,3305 495,3305 495,3695 105,3695 105,3305"/>
<poly id="b97" type="building" color="90,102,171" fill="1" layer="-1.00" shape="505,3305 895,3305 895,3695 505,3695 505,3305"/>
<poly id="b98" type="building" color="90,102,171" fill="1" layer="-1.00" shape="905,3305 1295,3305 1295,3695 905,3695 905,3305"/>
<poly id="b99" type="building" color="90,102,171" fill="1" layer="-1.00" shape="1305,3305 1695,3305 1695,3695 1305,3695 1305,3305"/>
<poly id="b100" type="building" color="90,102,171" fill="1" layer="-1.00" shape="1705,3305 2095,3305 2095,3695 1705,3695 1705,3305"/>
<poly id="b101" type="building" color="90,102,171" fill="1" layer="-1.00" shape="2105,3305 2495,3305 2495,3695 2105,3695 2105,3305"/>
<poly id="b102" type="building" color="90,102,171" fill="1" layer="-1.00" shape="2505,3305 2895,3305 2895,3695 2505,3695 2505,3305"/>
<poly id="b103" type="building" color="90,102,171" fill="1" layer="-1.00" shape="2905,3305 3295,3305 3295,3695 2905,3695 2905,3305"/>
<poly id="b104" type="building" color="90,102,171" fill="1" layer="-1.00" shape="3305,3305 3695,3305 3695,3695 3305,3695 3305,3305"/>
<poly id="b105" type="building" color="90,102,171" fill="1" layer="-1.00" shape="3705,3305 4095,3305 4095,3695 3705,3695 3705,3305"/>
<poly id="b106" type="building" color="90,102,171" fill="1" layer="-1.00" shape="4105,3305 4495,3305 4495,3695 4105,3695 4105,3305"/>
<poly id="b107" type="building" color="90,102,171" fill="1" layer="-1.00" shape="4505,3305 4895,3305 4895,3695 4505,3695 4505,3305"/>
<poly id="b108" type="building" color="90,102,171" fill="1" layer="-1.00" shape="105,3705 495,3705 495,4095 105,4095 105,3705"/>
<poly id="b109" type="building" color="90,102,171" fill="1" layer="-1.00" shape="505,3705 895,3705 895,4095 505,4095 505,3705"/>
<poly id="b110" type="building" color="90,102,171" fill="1" layer="-1.00" shape="905,3705 1295,3705 1295,4095 905,4095 905,3705"/>
<poly id="b111" type="building" color="90,102,171" fill="1" layer="-1.00" shape="1305,3705 1695,3705 1695,4095 1305,4095 1305,3705"/>
<poly id="b112" type="building" color="90,102,171" fill="1" layer="-1.00" shape="1705,3705 2095,3705 2095,4095 1705,4095 1705,3705"/>
<poly id="b113" type="building" color="90,102,171" fill="1" layer="-1.00" shape="2105,3705 2495,3705 2495,4095 2105,4095 2105,3705"/>
<poly id="b114" type="building" color="90,102,171" fill="1" layer="-1.00" shape="2505,3705 2895,3705 2895,4095 2505,4095 2505,3705"/>
<poly id="b115" type="building" color="90,102,171" fill="1" layer="-1.00" shape="2905,3705 3295,3705 3295,4095 2905,4095 2905,3705"/>
<poly id="b116" type="building" color="90,102,171" fill="1" layer="-1.00" shape="3305,3705 3695,3705 3695,4095 3305,4095 3305,3705"/>
<poly id="b117" type="building" color="90,102,171" fill="1" layer="-1.00" shape="3705,3705 4095,3705 4095,4095 3705,4095 3705,3705"/>
<poly id="b118" type="building" color="90,102,171" fill="1" layer="-1.00" shape="4105,3705 4495,3705 4495,4095 4105,4095 4105,3705"/>
<poly id="b119" type="building" color="90,102,171" fill="1" layer="-1.00" shape="4505,3705 4895,3705 4895,4095 4505,4095 4505,3705"/>
<poly id="b120" type="building" color="90,102,171" fill="1" layer="-1.00" shape="105,4105 495,4105 495,4495 105,4495 105,4105"/>
<poly id="b121" type="building" color="90,102,171" fill="1" layer="-1.00" shape="505,4105 895,4105 895,4495 505,4495 505,4105"/>
<poly id="b122" type="building" color="90,102,171" fill="1" layer="-1.00" shape="905,4105 1295,4105 1295,4495 905,4495 905,4105"/>
<poly id="b123" type="building" color="90,102,171" fill="1" layer="-1.00" shape="1305,4105 1695,4105 1695,4495 1305,4495 1305,4105"/>
<poly id="b124" type="building" color="90,102,171" fill="1" layer="-1.00" shape="1705,4105 2095,4105 2095,4495 1705,4495 1705,4105"/>
<poly id="b125" type="building" color="90,102,171" fill="1" layer="-1.00" shape="2105,4105 2495,4105 2495,4495 2105,4495 2105,4105"/>
<poly id="b126" type="building" color="90,102,171" fill="1" layer="-1.00" shape="2505,4105 2895,4105 2895,4495 2505,4495 2505,4105"/>
<poly id="b127" type="building" color="90,102,171" fill="1" layer="-1.00" shape="2905,4105 3295,4105 3295,4495 2905,4495 2905,4105"/>
<poly id="b128" type="building" color="90,102,171" fill="1" layer="-1.00" shape="3305,4105 3695,4105 3695,4495 3305,4495 3305,4105"/>
<poly id="b129" type="building" color="90,102,171" fill="1" layer="-1.00" shape="3705,4105 4095,4105 4095,4495 3705,4495 3705,4105"/>
<poly id="b130" type="building" color="90,102,171" fill="1" layer="-1.00" shape="4105,4105 4495,4105 4495,4495 4105,4495 4105,4105"/>
<poly id="b131" type="building" color="90,102,171" fill="1" layer="-1.00" shape="4505,4105 4895,4105 4895,4495 4505,4495 4505,4105"/>
<poly id="b132" type="building" color="90,102,171" fill="1" layer="-1.00" shape="105,4505 495,4505 495,4895 105,4895 105,4505"/>
<poly id="b133" type="building" color="90,102,171" fill="1" layer="-1.00" shape="505,4505 895,4505 895,4895 505,4895 505,4505"/>
<poly id="b134" type="building" color="90,102,171" fill="1" layer="-1.00" shape="905,4505 1295,4505 1295,4895 905,4895 905,4505"/>
<poly id="b135" type="building" color="90,102,171" fill="1" layer="-1.00" shape="1305,4505 1695,4505 1695,4895 1305,4895 1305,4505"/>
<poly id="b136" type="building" color="90,102,171" fill="1" layer="-1.00" shape="1705,4505 2095,4505 2095,4895 1705,4895 1705,4505"/>
<poly id="b137" type="building" color="90,102,171" fill="1" layer="-1.00" shape="2105,4505 2495,4505 2495,4895 2105,4895 2105,4505"/>
<poly id="b138" type="building" color="90,102,171" fill="1" layer="-1.00" shape="2505,4505 2895,4505 2895,4895 2505,4895 2505,4505"/>
<poly id="b139" type="building" color="90,102,171" fill="1" layer="-1.00" shape="2905,4505 3295,4505 3295,4895 2905,4895 2905,4505"/>
<poly id="b140" type="building" color="90,102,171" fill="1" layer="-1.00" shape="3305,4505 3695,4505 3695,4895 3305,4895 3305,4505"/>
<poly id="b141" type="building" color="90,102,171" fill="1" layer="-1.00" shape="3705,4505 4095,4505 4095,4895 3705,4895 3705,4505"/>
<poly id="b142" type="building" color="90,102,171" fill="1" layer="-1.00" shape="4105,4505 4495,4505 4495,4895 4105,4895 4105,4505"/>
<poly id="b143" type="building" color="90,102,171" fill="1" layer="-1.00" shape="4505,4505 4895,4505 4895,4895 4505,4895 4505,4505"/>
</additional>