<?xml version="1.0" encoding="UTF-8"?>

<additional xmlns:xsi="http://www.w3.org/2001/XMLSchema-instance" xsi:noNamespaceSchemaLocation="http://sumo.dlr.de/xsd/additional_file.xsd"><poly id="b0" type="building" color="90,102,171" fill="1" layer="-1.00" shape="105,105 295,105 295,295 105,295 105,105"/>
<poly id="b1" type="building" color="90,102,171" fill="1" layer="-1.00" shape="305,105 495,105 495,295 305,295 305,105"/>
<poly id="b2" type="building" color="90,102,171" fill="1" layer="-1.00" shape="505,105 695,105 695,295 505,295 505,105"/>
<poly id="b3" type="building" color="90,102,171" fill="1" layer="-1.00" shape="705,105 895,105 895,295 705,295 705,105"/>
<poly id="b4" type="building" color="90,102,171" fill="1" layer="-1.00" shape="905,105 1095,105 1095,295 905,295 905,105"/>
<poly id="b5" type="building" color="90,102,171" fill="1" layer="-1.00" shape="1105,105 1295,105 1295,295 1105,295 1105,105"/>
<poly id="b6" type="building" color="90,102,171" fill="1" layer="-1.00" shape="1305,105 1495,105 1495,295 1305,295 1305,105"/>
<poly id="b7" type="building" color="90,102,171" fill="1" layer="-1.00" shape="1505,105 1695,105 1695,295 1505,295 1505,105"/>
<poly id="b8" type="building" color="90,102,171" fill="1" layer="-1.00" shape="1705,105 1895,105 1895,295 1705,295 1705,105"/>
<poly id="b9" type="building" color="90,102,171" fill="1" layer="-1.00" shape="1905,105 2095,105 2095,295 1905,295 1905,105"/>
<poly id="b10" type="building" color="90,102,171" fill="1" layer="-1.00" shape="2105,105 2295,105 2295,295 2105,295 2105,105"/>
<poly id="b11" type="building" color="90,102,171" fill="1" layer="-1.00" shape="2305,105 2495,105 2495,295 2305,295 2305,105"/>
<poly id="b12" type="building" color="90,102,171" fill="1" layer="-1.00" shape="105,305 295,305 295,495 105,495 105,305"/>
<poly id="b13" type="building" color="90,102,171" fill="1" layer="-1.00" shape="305,305 495,305 495,495 305,495 305,305"/>
<poly id="b14" type="building" color="90,102,171" fill="1" layer="-1.00" shape="505,305 695,305 695,495 505,495 505,305"/>
<poly id="b15" type="building" color="90,102,171" fill="1" layer="-1.00" shape="705,305 895,305 895,495 705,495 705,305"/>
<poly id="b16" type="building" color="90,102,171" fill="1" layer="-1.00" shape="905,305 1095,305 1095,495 905,495 905,305"/>
<poly id="b17" type="building" color="90,102,171" fill="1" layer="-1.00" shape="1105,305 1295,305 1295,495 1105,495 1105,305"/>
<poly id="b18" type="building" color="90,102,171" fill="1" layer="-1.00" shape="1305,305 1495,305 1495,495 1305,495 1305,305"/>
<poly id="b19" type="building" color="90,102,171" fill="1" layer="-1.00" shape="1505,305 1695,305 1695,495 1505,495 1505,305"/>
<poly id="b20" type="building" color="90,102,171" fill="1" layer="-1.00" shape="1705,305 1895,305 1895,495 1705,495 1705,305"/>
<poly id="b21" type="building" color="90,102,171" fill="1" layer="-1.00" shape="1905,305 2095,305 2095,495 1905,495 1905,305"/>
<poly id="b22" type="building" color="90,102,171" fill="1" layer="-1.00" shape="2105,305 2295,305 2295,495 2105,495 2105,305"/>
<poly id="b23" type="building" color="90,102,171" fill="1" layer="-1.00" shape="2305,305 2495,305 2495,495 2305,495 2305,305"/>
<poly id="b24" type="building" color="90,102,171" fill="1" layer="-1.00" shape="105,505 295,505 295,695 105,695 105,505"/>
<poly id="b25" type="building" color="90,102,171" fill="1" layer="-1.00" shape="305,505 495,505 495,695 305,695 305,505"/>
<poly id="b26" type="building" color="90,102,171" fill="1" layer="-1.00" shape="505,505 695,505 695,695 505,695 505,505"/>
<poly id="b27" type="building" color="90,102,171" fill="1" layer="-1.00" shape="705,505 895,505 895,695 705,695 705,505"/>
<poly id="b28" type="building" color="90,102,171" fill="1" layer="-1.00" shape="905,505 1095,505 1095,695 905,695 905,505"/>
<poly id="b29" type="building" color="90,102,171" fill="1" layer="-1.00" shape="1105,505 1295,505 1295,695 1105,695 1105,505"/>
<poly id="b30" type="building" color="90,102,171" fill="1" layer="-1.00" shape="1305,505 1495,505 1495,695 1305,695 1305,505"/>
<poly id="b31" type="building" color="90,102,171" fill="1" layer="-1.00" shape="1505,505 1695,505 1695,695 1505,695 1505,505"/>
<poly id="b32" type="building" color="90,102,171" fill="1" layer="-1.00" shape="1705,505 1895,505 1895,695 1705,695 1705,505"/>
<poly id="b33" type="building" color="90,102,171" fill="1" layer="-1.00" shape="1905,505 2095,505 2095,695 1905,695 1905,505"/>
<poly id="b34" type="building" color="90,102,171" fill="1" layer="-1.00" shape="2105,505 2295,505 2295,695 2105,695 2105,505"/>
<poly id="b35" type="building" color="90,102,171" fill="1" layer="-1.00" shape="2305,505 2495,505 2495,695 2305,695 2305,505"/>
<poly id="b36" type="building" color="90,102,171" fill="1" layer="-1.00" shape="105,705 295,705 295,895 105,895 105,705"/>
<poly id="b37" type="building" color="90,102,171" fill="1" layer="-1.00" shape="305,705 495,705 495,895 305,895 305,705"/>
<poly id="b38" type="building" color="90,102,171" fill="1" layer="-1.00" shape="505,705 695,705 695,895 505,895 505,705"/>
<poly id="b39" type="building" color="90,102,171" fill="1" layer="-1.00" shape="705,705 895,705 895,895 705,895 705,705"/>
<poly id="b40" type="building" color="90,102,171" fill="1" layer="-1.00" shape="905,705 1095,705 1095,895 905,895 905,705"/>
<poly id="b41" type="building" color="90,102,171" fill="1" layer="-1.00" shape="1105,705 1295,705 1295,895 1105,895 1105,705"/>
<poly id="b42" type="building" color="90,102,171" fill="1" layer="-1.00" shape="1305,705 1495,705 1495,895 1305,895 1305,705"/>
<poly id="b43" type="building" color="90,102,171" fill="1" layer="-1.00" shape="1505,705 1695,705 1695,895 1505,895 1505,705"/>
<poly id="b44" type="building" color="90,102,171" fill="1" layer="-1.00" shape="1705,705 1895,705 1895,895 1705,895 1705,705"/>
<poly id="b45" type="building" color="90,102,171" fill="1" layer="-1.00" shape="1905,705 2095,705 2095,895 1905,895 1905,705"/>
<poly id="b46" type="building" color="90,102,171" fill="1" layer="-1.00" shape="2105,705 2295,705 2295,895 2105,895 2105,705"/>
<poly id="b47" type="building" color="90,102,171" fill="1" layer="-1.00" shape="2305,705 2495,705 2495,895 2305,895 2305,705"/>
<poly id="b48" type="building" color="90,102,171" fill="1" layer="-1.00" shape="105,905 295,905 295,1095 105,1095 105,905"/>
<poly id="b49" type="building" color="90,102,171" fill="1" layer="-1.00" shape="305,905 495,905 495,1095 305,1095 305,905"/>
<poly id="b50" type="building" color="90,102,171" fill="1" layer="-1.00" shape="505,905 695,905 695,1095 505,1095 505,905"/>
<poly id="b51" type="building" color="90,102,171" fill="1" layer="-1.00" shape="705,905 895,905 895,1095 705,1095 705,905"/>
<poly id="b52" type="building" color="90,102,171" fill="1" layer="-1.00" shape="905,905 1095,905 1095,1095 905,1095 905,905"/>
<poly id="b53" type="building" color="90,102,171" fill="1" layer="-1.00" shape="1105,905 1295,905 1295,1095 1105,1095 1105,905"/>
<poly id="b54" type="building" color="90,102,171" fill="1" layer="-1.00" shape="1305,905 1495,905 1495,1095 1305,1095 1305,905"/>
<poly id="b55" type="building" color="90,102,171" fill="1" layer="-1.00" shape="1505,905 1695,905 1695,1095 1505,1095 1505,905"/>
<poly id="b56" type="building" color="90,102,171" fill="1" layer="-1.00" shape="1705,905 1895,905 1895,1095 1705,1095 1705,905"/>
<poly id="b57" type="building" color="90,102,171" fill="1" layer="-1.00" shape="1905,905 2095,905 2095,1095 1905,1095 1905,905"/>
<poly id="b58" type="building" color="90,102,171" fill="1" layer="-1.00" shape="2105,905 2295,905 2295,1095 2105,1095 2105,905"/>
<poly id="b59" type="building" color="90,102,171" fill="1" layer="-1.00" shape="2305,905 2495,905 2495,1095 2305,1095 2305,905"/>
<poly id="b60" type="building" color="90,102,171" fill="1" layer="-1.00" shape="105,1105 295,1105 295,1295 105,1295 105,1105"/>
<poly id="b61" type="building" color="90,102,171" fill="1" layer="-1.00" shape="305,1105 495,1105 495,1295 305,1295 305,1105"/>
<poly id="b62" type="building" color="90,102,171" fill="1" layer="-1.00" shape="505,1105 695,1105 695,1295 505,1295 505,1105"/>
<poly id="b63" type="building" color="90,102,171" fill="1" layer="-1.00" shape="705,1105 895,1105 895,1295 705,1295 705,1105"/>
<poly id="b64" type="building" color="90,102,171" fill="1" layer="-1.00" shape="905,1105 1095,1105 1095,1295 905,1295 905,1105"/>
<poly id="b65" type="building" color="90,102,171" fill="1" layer="-1.00" shape="1105,1105 1295,1105 1295,1295 1105,1295 1105,1105"/>
<poly id="b66" type="building" color="90,102,171" fill="1" layer="-1.00" shape="1305,1105 1495,1105 1495,1295 1305,1295 1305,1105"/>
<poly id="b67" type="building" color="90,102,171" fill="1" layer="-1.00" shape="1505,1105 1695,1105 1695,1295 1505,1295 1505,1105"/>
<poly id="b68" type="building" color="90,102,171" fill="1" layer="-1.00" shape="1705,1105 1895,1105 1895,1295 1705,1295 1705,1105"/>
<poly id="b69" type="building" color="90,102,171" fill="1" layer="-1.00" shape="1905,1105 2095,1105 2095,1295 1905,1295 1905,1105"/>
<poly id="b70" type="building" color="90,102,171" fill="1" layer="-1.00" shape="2105,1105 2295,1105 2295,1295 2105,1295 2105,1105"/>
<poly id="b71" type="building" color="90,102,171" fill="1" layer="-1.00" shape="2305,1105 2495,1105 2495,1295 2305,1295 2305,1105"/>
<poly id="b72" type="building" color="90,102,171" fill="1" layer="-1.00" shape="105,1305 295,1305 295,1495 105,1495 105,1305"/>
<poly id="b73" type="building" color="90,102,171" fill="1" layer="-1.00" shape="305,1305 495,1305 495,1495 305,1495 305,1305"/>
<poly id="b74" type="building" color="90,102,171" fill="1" layer="-1.00" shape="505,1305 695,1305 695,1495 505,1495 505,1305"/>
<poly id="b75" type="building" color="90,102,171" fill="1" layer="-1.00" shape="705,1305 895,1305 895,1495 705,1495 705,1305"/>
<poly id="b76" type="building" color="90,102,171" fill="1" layer="-1.00" shape="905,1305 1095,1305 1095,1495 905,1495 905,1305"/>
<poly id="b77" type="building" color="90,102,171" fill="1" layer="-1.00" shape="1105,1305 1295,1305 1295,1495 1105,1495 1105,1305"/>
<poly id="b78" type="building" color="90,102,171" fill="1" layer="-1.00" shape="1305,1305 1495,1305 1495,1495 1305,1495 1305,1305"/>
<poly id="b79" type="building" color="90,102,171" fill="1" layer="-1.00" shape="1505,1305 1695,1305 1695,1495 1505,1495 1505,1305"/>
<poly id="b80" type="building" color="90,102,171" fill="1" layer="-1.00" shape="1705,1305 1895,1305 1895,1495 1705,1495 1705,1305"/>
<poly id="b81" type="building" color="90,102,171" fill="1" layer="-1.00" shape="1905,1305 2095,1305 2095,1495 1905,1495 1905,1305"/>
<poly id="b82" type="building" color="90,102,171" fill="1" layer="-1.00" shape="2105,1305 2295,1305 2295,1495 2105,1495 2105,1305"/>
<poly id="b83" type="building" color="90,102,171" fill="1" layer="-1.00" shape="2305,1305 2495,1305 2495,1495 2305,1495 2305,1305"/>
<poly id="b84" type="building" color="90,102,171" fill="1" layer="-1.00" shape="105,1505 295,1505 295,1695 105,1695 105,1505"/>
<poly id="b85" type="building" color="90,102,171" fill="1" layer="-1.00" shape="305,1505 495,1505 495,1695 305,1695 305,1505"/>
<poly id="b86" type="building" color="90,102,171" fill="1" layer="-1.00" shape="505,1505 695,1505 695,1695 505,1695 505,1505"/>
<poly id="b87" type="building" color="90,102,171" fill="1" layer="-1.00" shape="705,1505 895,1505 895,1695 705,1695 705,1505"/>
<poly id="b88" type="building" color="90,102,171" fill="1" layer="-1.00" shape="905,1505 1095,1505 1095,1695 905,1695 905,1505"/>
<poly id="b89" type="building" color="90,102,171" fill="1" layer="-1.00" shape="1105,1505 1295,1505 1295,1695 1105,1695 1105,1505"/>
<poly id="b90" type="building" color="90,102,171" fill="1" layer="-1.00" shape="1305,1505 1495,1505 1495,1695 1305,1695 1305,1505"/>
<poly id="b91" type="building" color="90,102,171" fill="1" layer="-1.00" shape="1505,1505 1695,1505 1695,1695 1505,1695 1505,1505"/>
<poly id="b92" type="building" color="90,102,171" fill="1" layer="-1.00" shape="1705,1505 1895,1505 1895,1695 1705,1695 1705,1505"/>
<poly id="b93" type="building" color="90,102,171" fill="1" layer="-1.00" shape="1905,1505 2095,1505 2095,1695 1905,1695 1905,1505"/>
<poly id="b94" type="building" color="90,102,171" fill="1" layer="-1.00" shape="2105,1505 2295,1505 2295,1695 2105,1695 2105,1505"/>
<poly id="b95" type="building" color="90,102,171" fill="1" layer="-1.00" shape="2305,1505 2495,1505 2495,1695 2305,1695 2305,1505"/>
<poly id="b96" type="building" color="90,102,171" fill="1" layer="-1.00" shape="105,1705 295,1705 295,1895 105,1895 105,1705"/>
<poly id="b97" type="building" color="90,102,171" fill="1" layer="-1.00" shape="305,1705 495,1705 495,1895 305,1895 305,1705"/>
<poly id="b98" type="building" color="90,102,171" fill="1" layer="-1.00" shape="505,1705 695,1705 695,1895 505,1895 505,1705"/>
<poly id="b99" type="building" color="90,102,171" fill="1" layer="-1.00" shape="705,1705 895,1705 895,1895 705,1895 705,1705"/>
<poly id="b100" type="building" color="90,102,171" fill="1" layer="-1.00" shape="905,1705 1095,1705 1095,1895 905,1895 905,1705"/>
<poly id="b101" type="building" color="90,102,171" fill="1" layer="-1.00" shape="1105,1705 1295,1705 1295,1895 1105,1895 1105,1705"/>
<poly id="b102" type="building" color="90,102,171" fill="1" layer="-1.00" shape="1305,1705 1495,1705 1495,1895 1305,1895 1305,1705"/>
<poly id="b103" type="building" color="90,102,171" fill="1" layer="-1.00" shape="1505,1705 1695,1705 1695,1895 1505,1895 1505,1705"/>
<poly id="b104" type="building" color="90,102,171" fill="1" layer="-1.00" shape="1705,1705 1895,1705 1895,1895 1705,1895 1705,1705"/>
<poly id="b105" type="building" color="90,102,171" fill="1" layer="-1.00" shape="1905,1705 2095,1705 2095,1895 1905,1895 1905,1705"/>
<poly id="b106" type="building" color="90,102,171" fill="1" layer="-1.00" shape="2105,1705 2295,1705 2295,1895 2105,1895 2105,1705"/>
<poly id="b107" type="building" color="90,102,171" fill="1" layer="-1.00" shape="2305,1705 2495,1705 2495,1895 2305,1895 2305,1705"/>
<poly id="b108" type="building" color="90,102,171" fill="1" layer="-1.00" shape="105,1905 295,1905 295,2095 105,2095 105,1905"/>
<poly id="b109" type="building" color="90,102,171" fill="1" layer="-1.00" shape="305,1905 495,1905 495,2095 305,2095 305,1905"/>
<poly id="b110" type="building" color="90,102,171" fill="1" layer="-1.00" shape="505,1905 695,1905 695,2095 505,2095 505,1905"/>
<poly id="b111" type="building" color="90,102,171" fill="1" layer="-1.00" shape="705,1905 895,1905 895,2095 705,2095 705,1905"/>
<poly id="b112" type="building" color="90,102,171" fill="1" layer="-1.00" shape="905,1905 1095,1905 1095,2095 905,2095 905,1905"/>
<poly id="b113" type="building" color="90,102,171" fill="1" layer="-1.00" shape="1105,1905 1295,1905 1295,2095 1105,2095 1105,1905"/>
<poly id="b114" type="building" color="90,102,171" fill="1" layer="-1.00" shape="1305,1905 1495,1905 1495,2095 1305,2095 1305,1905"/>
<poly id="b115" type="building" color="90,102,171" fill="1" layer="-1.00" shape="1505,1905 1695,1905 1695,2095 1505,2095 1505,1905"/>
<poly id="b116" type="building" color="90,102,171" fill="1" layer="-1.00" shape="1705,1905 1895,1905 1895,2095 1705,2095 1705,1905"/>
<poly id="b117" type="building" color="90,102,171" fill="1" layer="-1.00" shape="1905,1905 2095,1905 2095,2095 1905,2095 1905,1905"/>
<poly id="b118" type="building" color="90,102,171" fill="1" layer="-1.00" shape="2105,1905 2295,1905 2295,2095 2105,2095 2105,1905"/>
<poly id="b119" type="building" color="90,102,171" fill="1" layer="-1.00" shape="2305,1905 2495,1905 2495,2095 2305,2095 2305,1905"/>
<poly id="b120" type="building" color="90,102,171" fill="1" layer="-1.00" shape="105,2105 295,2105 295,2295 105,2295 105,2105"/>
<poly id="b121" type="building" color="90,102,171" fill="1" layer="-1.00" shape="305,2105 495,2105 495,2295 305,2295 305,2105"/>
<poly id="b122" type="building" color="90,102,171" fill="1" layer="-1.00" shape="505,2105 695,2105 695,2295 505,2295 505,2105"/>
<poly id="b123" type="building" color="90,102,171" fill="1" layer="-1.00" shape="705,2105 895,2105 895,2295 705,2295 705,2105"/>
<poly id="b124" type="building" color="90,102,171" fill="1" layer="-1.00" shape="905,2105 1095,2105 1095,2295 905,2295 905,2105"/>
<poly id="b125" type="building" color="90,102,171" fill="1" layer="-1.00" shape="1105,2105 1295,2105 1295,2295 1105,2295 1105,2105"/>
<poly id="b126" type="building" color="90,102,171" fill="1" layer="-1.00" shape="1305,2105 1495,2105 1495,2295 1305,2295 1305,2105"/>
<poly id="b127" type="building" color="90,102,171" fill="1" layer="-1.00" shape="1505,2105 1695,2105 1695,2295 1505,2295 1505,2105"/>
<poly id="b128" type="building" color="90,102,171" fill="1" layer="-1.00" shape="1705,2105 1895,2105 1895,2295 1705,2295 1705,2105"/>
<poly id="b129" type="building" color="90,102,171" fill="1" layer="-1.00" shape="1905,2105 2095,2105 2095,2295 1905,2295 1905,2105"/>
<poly id="b130" type="building" color="90,102,171" fill="1" layer="-1.00" shape="2105,2105 2295,2105 2295,2295 2105,2295 2105,2105"/>
<poly id="b131" type="building" color="90,102,171" fill="1" layer="-1.00" shape="2305,2105 2495,2105 2495,2295 2305,2295 2305,2105"/>
<poly id="b132" type="building" color="90,102,171" fill="1" layer="-1.00" shape="105,2305 295,2305 295,2495 105,2495 105,2305"/>
<poly id="b133" type="building" color="90,102,171" fill="1" layer="-1.00" shape="305,2305 495,2305 495,2495 305,2495 305,2305"/>
<poly id="b134" type="building" color="90,102,171" fill="1" layer="-1.00" shape="505,2305 695,2305 695,2495 505,2495 505,2305"/>
<poly id="b135" type="building" color="90,102,171" fill="1" layer="-1.00" shape="705,2305 895,2305 895,2495 705,2495 705,2305"/>
<poly id="b136" type="building" color="90,102,171" fill="1" layer="-1.00" shape="905,2305 1095,2305 1095,2495 905,2495 905,2305"/>
<poly id="b137" type="building" color="90,102,171" fill="1" layer="-1.00" shape="1105,2305 1295,2305 1295,2495 1105,2495 1105,2305"/>
<poly id="b138" type="building" color="90,102,171" fill="1" layer="-1.00" shape="1305,2305 1495,2305 1495,2495 1305,2495 1305,2305"/>
<poly id="b139" type="building" color="90,102,171" fill="1" layer="-1.00" shape="1505,2305 1695,2305 1695,2495 1505,2495 1505,2305"/>
<poly id="b140" type="building" color="90,102,171" fill="1" layer="-1.00" shape="1705,2305 1895,2305 1895,2495 1705,2495 1705,2305"/>
<poly id="b141" type="building" color="90,102,171" fill="1" layer="-1.00" shape="1905,2305 2095,2305 2095,2495 1905,2495 1905,2305"/>
<poly id="b142" type="building" color="90,102,171" fill="1" layer="-1.00" shape="2105,2305 2295,2305 2295,2495 2105,2495 2105,2305"/>
<poly id="b143" type="building" color="90,102,171" fill="1" layer="-1.00" shape="2305,2305 2495,2305 2495,2495 2305,2495 2305,2305"/>
</additional>