<?xml version="1.0" encoding="UTF-8"?>
<!-- generated on 2019-04-24 14:48:08.676596 by $Id: randomTrips.py 23999 2017-04-21 09:04:47Z behrisch $
  options: -n /home/jordan/MEGA/Universita_mia/Magistrale/Tesi/ns3-cluster/maps/Padova-5/Padova.net.xml -d 5 -o /home/jordan/MEGA/Universita_mia/Magistrale/Tesi/ns3-cluster/maps/Padova-5/Padova-5.trips.xml
-->
<routes xmlns:xsi="http://www.w3.org/2001/XMLSchema-instance" xsi:noNamespaceSchemaLocation="http://sumo.dlr.de/xsd/routes_file.xsd">
	<vType id="car" accel="0.8" decel="4.5" sigma="0.5" length="4" maxSpeed="50"/>

	<trip id="0" depart="0.00" departPos="20" from="29985102" to="29985102" type="car"/>
	<trip id="1" depart="0.00" departPos="25" from="29985102" to="29985102" type="car"/>
	<trip id="2" depart="0.00" departPos="30" from="29985102" to="29985102" type="car"/>
	<trip id="3" depart="0.00" departPos="35" from="29985102" to="29985102" type="car"/>
	<trip id="4" depart="0.00" departPos="10" from="157386837#1" to="157386837#1" type="car"/>
	<trip id="5" depart="0.00" departPos="15" from="157386837#1" to="157386837#1" type="car"/>
	<trip id="6" depart="0.00" departPos="20" from="157386837#1" to="157386837#1" type="car"/>
	<trip id="7" depart="0.00" departPos="4" from="48064726#0" to="48064726#0" type="car"/>
	<trip id="8" depart="0.00" departPos="9" from="48064726#0" to="48064726#0" type="car"/>
	<trip id="9" depart="0.00" departPos="14" from="48064726#0" to="48064726#0" type="car"/>
	<trip id="10" depart="0.00" departPos="19" from="48064726#0" to="48064726#0" type="car"/>
	<trip id="11" depart="0.00" departPos="24" from="48064726#0" to="48064726#0" type="car"/>
	<trip id="12" depart="0.00" departPos="29" from="48064726#0" to="48064726#0" type="car"/>
	<trip id="13" depart="0.00" departPos="34" from="48064726#0" to="48064726#0" type="car"/>
	<trip id="14" depart="0.00" departPos="39" from="48064726#0" to="48064726#0" type="car"/>
	<trip id="15" depart="0.00" departPos="44" from="48064726#0" to="48064726#0" type="car"/>
	<trip id="16" depart="0.00" departPos="49" from="48064726#0" to="48064726#0" type="car"/>
	<trip id="17" depart="0.00" departPos="54" from="48064726#0" to="48064726#0" type="car"/>
	<trip id="18" depart="0.00" departPos="59" from="48064726#0" to="48064726#0" type="car"/>
	<trip id="19" depart="0.00" departPos="64" from="48064726#0" to="48064726#0" type="car"/>
	<trip id="20" depart="0.00" departPos="69" from="48064726#0" to="48064726#0" type="car"/>
	<trip id="21" depart="0.00" departPos="74" from="48064726#0" to="48064726#0" type="car"/>
	<trip id="22" depart="0.00" departPos="79" from="48064726#0" to="48064726#0" type="car"/>
	<trip id="23" depart="0.00" departPos="84" from="48064726#0" to="48064726#0" type="car"/>
	<trip id="24" depart="0.00" departPos="89" from="48064726#0" to="48064726#0" type="car"/>
	<trip id="25" depart="0.00" departPos="94" from="48064726#0" to="48064726#0" type="car"/>
	<trip id="26" depart="0.00" departPos="99" from="48064726#0" to="48064726#0" type="car"/>
	<trip id="27" depart="0.00" departPos="104" from="48064726#0" to="48064726#0" type="car"/>
	<trip id="28" depart="0.00" departPos="109" from="48064726#0" to="48064726#0" type="car"/>
	<trip id="29" depart="0.00" departPos="114" from="48064726#0" to="48064726#0" type="car"/>
	<trip id="30" depart="0.00" departPos="119" from="48064726#0" to="48064726#0" type="car"/>
	<trip id="31" depart="0.00" departPos="124" from="48064726#0" to="48064726#0" type="car"/>
	<trip id="32" depart="0.00" departPos="129" from="48064726#0" to="48064726#0" type="car"/>
	<trip id="33" depart="0.00" departPos="134" from="48064726#0" to="48064726#0" type="car"/>
	<trip id="34" depart="0.00" departPos="139" from="48064726#0" to="48064726#0" type="car"/>
	<trip id="35" depart="0.00" departPos="144" from="48064726#0" to="48064726#0" type="car"/>
	<trip id="36" depart="0.00" departPos="149" from="48064726#0" to="48064726#0" type="car"/>
	<trip id="37" depart="0.00" departPos="154" from="48064726#0" to="48064726#0" type="car"/>
	<trip id="38" depart="0.00" departPos="159" from="48064726#0" to="48064726#0" type="car"/>
	<trip id="39" depart="0.00" departPos="164" from="48064726#0" to="48064726#0" type="car"/>
	<trip id="40" depart="0.00" departPos="169" from="48064726#0" to="48064726#0" type="car"/>
	<trip id="41" depart="0.00" departPos="174" from="48064726#0" to="48064726#0" type="car"/>
	<trip id="42" depart="0.00" departPos="179" from="48064726#0" to="48064726#0" type="car"/>
	<trip id="43" depart="0.00" departPos="184" from="48064726#0" to="48064726#0" type="car"/>
	<trip id="44" depart="0.00" departPos="189" from="48064726#0" to="48064726#0" type="car"/>
	<trip id="45" depart="0.00" departPos="2" from="48064726#1" to="48064726#1" type="car"/>
	<trip id="46" depart="0.00" departPos="7" from="48064726#1" to="48064726#1" type="car"/>
	<trip id="47" depart="0.00" departPos="12" from="48064726#1" to="48064726#1" type="car"/>
	<trip id="48" depart="0.00" departPos="17" from="48064726#1" to="48064726#1" type="car"/>
	<trip id="49" depart="0.00" departPos="22" from="48064726#1" to="48064726#1" type="car"/>
	<trip id="50" depart="0.00" departPos="60" from="-172400661#3" to="-172400661#3" type="car"/>
	<trip id="51" depart="0.00" departPos="65" from="-172400661#3" to="-172400661#3" type="car"/>
	<trip id="52" depart="0.00" departPos="70" from="-172400661#3" to="-172400661#3" type="car"/>
	<trip id="53" depart="0.00" departPos="75" from="-172400661#3" to="-172400661#3" type="car"/>
	<trip id="54" depart="0.00" departPos="80" from="-172400661#3" to="-172400661#3" type="car"/>
	<trip id="55" depart="0.00" departPos="85" from="-172400661#3" to="-172400661#3" type="car"/>
	<trip id="56" depart="0.00" departPos="90" from="-172400661#3" to="-172400661#3" type="car"/>
	<trip id="57" depart="0.00" departPos="95" from="-172400661#3" to="-172400661#3" type="car"/>
	<trip id="58" depart="0.00" departPos="100" from="-172400661#3" to="-172400661#3" type="car"/>
	<trip id="59" depart="0.00" departPos="105" from="-172400661#3" to="-172400661#3" type="car"/>
	<trip id="60" depart="0.00" departPos="110" from="-172400661#3" to="-172400661#3" type="car"/>
	<trip id="61" depart="0.00" departPos="115" from="-172400661#3" to="-172400661#3" type="car"/>
	<trip id="62" depart="0.00" departPos="120" from="-172400661#3" to="-172400661#3" type="car"/>
	<trip id="63" depart="0.00" departPos="4" from="-172400661#2" to="-172400661#2" type="car"/>
	<trip id="64" depart="0.00" departPos="9" from="-172400661#2" to="-172400661#2" type="car"/>
	<trip id="65" depart="0.00" departPos="4" from="-172400661#1" to="-172400661#1" type="car"/>
	<trip id="66" depart="0.00" departPos="9" from="-172400661#1" to="-172400661#1" type="car"/>
	<trip id="67" depart="0.00" departPos="14" from="-172400661#1" to="-172400661#1" type="car"/>
	<trip id="68" depart="0.00" departPos="19" from="-172400661#1" to="-172400661#1" type="car"/>
	<trip id="69" depart="0.00" departPos="24" from="-172400661#1" to="-172400661#1" type="car"/>
	<trip id="70" depart="0.00" departPos="29" from="-172400661#1" to="-172400661#1" type="car"/>
	<trip id="71" depart="0.00" departPos="34" from="-172400661#1" to="-172400661#1" type="car"/>
	<trip id="72" depart="0.00" departPos="39" from="-172400661#1" to="-172400661#1" type="car"/>
	<trip id="73" depart="0.00" departPos="44" from="-172400661#1" to="-172400661#1" type="car"/>
	<trip id="74" depart="0.00" departPos="49" from="-172400661#1" to="-172400661#1" type="car"/>
	<trip id="75" depart="0.00" departPos="54" from="-172400661#1" to="-172400661#1" type="car"/>
	<trip id="76" depart="0.00" departPos="59" from="-172400661#1" to="-172400661#1" type="car"/>
	<trip id="77" depart="0.00" departPos="64" from="-172400661#1" to="-172400661#1" type="car"/>
	<trip id="78" depart="0.00" departPos="69" from="-172400661#1" to="-172400661#1" type="car"/>
	<trip id="79" depart="0.00" departPos="74" from="-172400661#1" to="-172400661#1" type="car"/>
	<trip id="80" depart="0.00" departPos="2" from="29983394" to="29983394" type="car"/>
	<trip id="81" depart="0.00" departPos="7" from="29983394" to="29983394" type="car"/>
	<trip id="82" depart="0.00" departPos="12" from="29983394" to="29983394" type="car"/>
	<trip id="83" depart="0.00" departPos="17" from="29983394" to="29983394" type="car"/>
	<trip id="84" depart="0.00" departPos="22" from="29983394" to="29983394" type="car"/>
	<trip id="85" depart="0.00" departPos="27" from="29983394" to="29983394" type="car"/>
	<trip id="86" depart="0.00" departPos="32" from="29983394" to="29983394" type="car"/>
	<trip id="87" depart="0.00" departPos="37" from="29983394" to="29983394" type="car"/>
	<trip id="88" depart="0.00" departPos="42" from="29983394" to="29983394" type="car"/>
	<trip id="89" depart="0.00" departPos="47" from="29983394" to="29983394" type="car"/>
	<trip id="90" depart="0.00" departPos="52" from="29983394" to="29983394" type="car"/>
	<trip id="91" depart="0.00" departPos="57" from="29983394" to="29983394" type="car"/>
	<trip id="92" depart="0.00" departPos="62" from="29983394" to="29983394" type="car"/>
	<trip id="93" depart="0.00" departPos="67" from="29983394" to="29983394" type="car"/>
	<trip id="94" depart="0.00" departPos="72" from="29983394" to="29983394" type="car"/>
	<trip id="95" depart="0.00" departPos="77" from="29983394" to="29983394" type="car"/>
	<trip id="96" depart="0.00" departPos="82" from="29983394" to="29983394" type="car"/>
	<trip id="97" depart="0.00" departPos="87" from="29983394" to="29983394" type="car"/>
	<trip id="98" depart="0.00" departPos="92" from="29983394" to="29983394" type="car"/>
	<trip id="99" depart="0.00" departPos="97" from="29983394" to="29983394" type="car"/>
	<trip id="100" depart="0.00" departPos="102" from="29983394" to="29983394" type="car"/>
	<trip id="101" depart="0.00" departPos="107" from="29983394" to="29983394" type="car"/>
	<trip id="102" depart="0.00" departPos="112" from="29983394" to="29983394" type="car"/>
	<trip id="103" depart="0.00" departPos="117" from="29983394" to="29983394" type="car"/>
	<trip id="104" depart="0.00" departPos="122" from="29983394" to="29983394" type="car"/>
	<trip id="105" depart="0.00" departPos="127" from="29983394" to="29983394" type="car"/>
	<trip id="106" depart="0.00" departPos="132" from="29983394" to="29983394" type="car"/>
	<trip id="107" depart="0.00" departPos="137" from="29983394" to="29983394" type="car"/>
	<trip id="108" depart="0.00" departPos="142" from="29983394" to="29983394" type="car"/>
	<trip id="109" depart="0.00" departPos="147" from="29983394" to="29983394" type="car"/>
	<trip id="110" depart="0.00" departPos="152" from="29983394" to="29983394" type="car"/>
	<trip id="111" depart="0.00" departPos="157" from="29983394" to="29983394" type="car"/>
	<trip id="112" depart="0.00" departPos="162" from="29983394" to="29983394" type="car"/>
	<trip id="113" depart="0.00" departPos="167" from="29983394" to="29983394" type="car"/>
	<trip id="114" depart="0.00" departPos="172" from="29983394" to="29983394" type="car"/>
	<trip id="115" depart="0.00" departPos="1" from="-108140486#1" to="-108140486#1" type="car"/>
	<trip id="116" depart="0.00" departPos="6" from="-108140486#1" to="-108140486#1" type="car"/>
	<trip id="117" depart="0.00" departPos="11" from="-108140486#1" to="-108140486#1" type="car"/>
	<trip id="118" depart="0.00" departPos="16" from="-108140486#1" to="-108140486#1" type="car"/>
	<trip id="119" depart="0.00" departPos="21" from="-108140486#1" to="-108140486#1" type="car"/>
	<trip id="120" depart="0.00" departPos="26" from="-108140486#1" to="-108140486#1" type="car"/>
	<trip id="121" depart="0.00" departPos="31" from="-108140486#1" to="-108140486#1" type="car"/>
	<trip id="122" depart="0.00" departPos="36" from="-108140486#1" to="-108140486#1" type="car"/>
	<trip id="123" depart="0.00" departPos="41" from="-108140486#1" to="-108140486#1" type="car"/>
	<trip id="124" depart="0.00" departPos="46" from="-108140486#1" to="-108140486#1" type="car"/>
	<trip id="125" depart="0.00" departPos="51" from="-108140486#1" to="-108140486#1" type="car"/>
	<trip id="126" depart="0.00" departPos="56" from="-108140486#1" to="-108140486#1" type="car"/>
	<trip id="127" depart="0.00" departPos="14" from="27198540#0" to="27198540#0" type="car"/>
	<trip id="128" depart="0.00" departPos="19" from="27198540#0" to="27198540#0" type="car"/>
	<trip id="129" depart="0.00" departPos="24" from="27198540#0" to="27198540#0" type="car"/>
	<trip id="130" depart="0.00" departPos="1" from="27198540#1" to="27198540#1" type="car"/>
	<trip id="131" depart="0.00" departPos="0" from="27198540#2" to="27198540#2" type="car"/>
	<trip id="132" depart="0.00" departPos="5" from="27198540#2" to="27198540#2" type="car"/>
	<trip id="133" depart="0.00" departPos="10" from="27198540#2" to="27198540#2" type="car"/>
	<trip id="134" depart="0.00" departPos="0" from="27198540#3" to="27198540#3" type="car"/>
	<trip id="135" depart="0.00" departPos="5" from="27198540#3" to="27198540#3" type="car"/>
	<trip id="136" depart="0.00" departPos="10" from="27198540#3" to="27198540#3" type="car"/>
	<trip id="137" depart="0.00" departPos="15" from="27198540#3" to="27198540#3" type="car"/>
	<trip id="138" depart="0.00" departPos="20" from="27198540#3" to="27198540#3" type="car"/>
	<trip id="139" depart="0.00" departPos="25" from="27198540#3" to="27198540#3" type="car"/>
	<trip id="140" depart="0.00" departPos="30" from="27198540#3" to="27198540#3" type="car"/>
	<trip id="141" depart="0.00" departPos="35" from="27198540#3" to="27198540#3" type="car"/>
	<trip id="142" depart="0.00" departPos="40" from="27198540#3" to="27198540#3" type="car"/>
	<trip id="143" depart="0.00" departPos="45" from="27198540#3" to="27198540#3" type="car"/>
	<trip id="144" depart="0.00" departPos="50" from="27198540#3" to="27198540#3" type="car"/>
	<trip id="145" depart="0.00" departPos="55" from="27198540#3" to="27198540#3" type="car"/>
	<trip id="146" depart="0.00" departPos="60" from="27198540#3" to="27198540#3" type="car"/>
	<trip id="147" depart="0.00" departPos="65" from="27198540#3" to="27198540#3" type="car"/>
	<trip id="148" depart="0.00" departPos="70" from="27198540#3" to="27198540#3" type="car"/>
	<trip id="149" depart="0.00" departPos="75" from="27198540#3" to="27198540#3" type="car"/>
	<trip id="150" depart="0.00" departPos="80" from="27198540#3" to="27198540#3" type="car"/>
	<trip id="151" depart="0.00" departPos="85" from="27198540#3" to="27198540#3" type="car"/>
	<trip id="152" depart="0.00" departPos="90" from="27198540#3" to="27198540#3" type="car"/>
	<trip id="153" depart="0.00" departPos="26" from="27198540#5" to="27198540#5" type="car"/>
	<trip id="154" depart="0.00" departPos="31" from="27198540#5" to="27198540#5" type="car"/>
	<trip id="155" depart="0.00" departPos="36" from="27198540#5" to="27198540#5" type="car"/>
	<trip id="156" depart="0.00" departPos="41" from="27198540#5" to="27198540#5" type="car"/>
	<trip id="157" depart="0.00" departPos="46" from="27198540#5" to="27198540#5" type="car"/>
	<trip id="158" depart="0.00" departPos="51" from="27198540#5" to="27198540#5" type="car"/>
	<trip id="159" depart="0.00" departPos="3" from="40582821" to="40582821" type="car"/>
	<trip id="160" depart="0.00" departPos="8" from="40582821" to="40582821" type="car"/>
	<trip id="161" depart="0.00" departPos="3" from="475079859" to="475079859" type="car"/>
	<trip id="162" depart="0.00" departPos="8" from="475079859" to="475079859" type="car"/>
	<trip id="163" depart="0.00" departPos="13" from="475079859" to="475079859" type="car"/>
	<trip id="164" depart="0.00" departPos="1" from="475079860" to="475079860" type="car"/>
	<trip id="165" depart="0.00" departPos="6" from="475079860" to="475079860" type="car"/>
	<trip id="166" depart="0.00" departPos="11" from="475079860" to="475079860" type="car"/>
	<trip id="167" depart="0.00" departPos="16" from="475079860" to="475079860" type="car"/>
	<trip id="168" depart="0.00" departPos="44" from="30016949" to="30016949" type="car"/>
	<trip id="169" depart="0.00" departPos="49" from="30016949" to="30016949" type="car"/>
	<trip id="170" depart="0.00" departPos="54" from="30016949" to="30016949" type="car"/>
	<trip id="171" depart="0.00" departPos="59" from="30016949" to="30016949" type="car"/>
	<trip id="172" depart="0.00" departPos="64" from="30016949" to="30016949" type="car"/>
	<trip id="173" depart="0.00" departPos="69" from="30016949" to="30016949" type="car"/>
	<trip id="174" depart="0.00" departPos="74" from="30016949" to="30016949" type="car"/>
	<trip id="175" depart="0.00" departPos="79" from="30016949" to="30016949" type="car"/>
	<trip id="176" depart="0.00" departPos="84" from="30016949" to="30016949" type="car"/>
	<trip id="177" depart="0.00" departPos="0" from="30016950#0" to="30016950#0" type="car"/>
	<trip id="178" depart="0.00" departPos="5" from="30016950#0" to="30016950#0" type="car"/>
	<trip id="179" depart="0.00" departPos="10" from="30016950#0" to="30016950#0" type="car"/>
	<trip id="180" depart="0.00" departPos="15" from="30016950#0" to="30016950#0" type="car"/>
	<trip id="181" depart="0.00" departPos="20" from="30016950#0" to="30016950#0" type="car"/>
	<trip id="182" depart="0.00" departPos="25" from="30016950#0" to="30016950#0" type="car"/>
	<trip id="183" depart="0.00" departPos="30" from="30016950#0" to="30016950#0" type="car"/>
	<trip id="184" depart="0.00" departPos="35" from="30016950#0" to="30016950#0" type="car"/>
	<trip id="185" depart="0.00" departPos="40" from="30016950#0" to="30016950#0" type="car"/>
	<trip id="186" depart="0.00" departPos="45" from="30016950#0" to="30016950#0" type="car"/>
	<trip id="187" depart="0.00" departPos="50" from="30016950#0" to="30016950#0" type="car"/>
	<trip id="188" depart="0.00" departPos="3" from="30137893#0" to="30137893#0" type="car"/>
	<trip id="189" depart="0.00" departPos="8" from="30137893#0" to="30137893#0" type="car"/>
	<trip id="190" depart="0.00" departPos="13" from="30137893#0" to="30137893#0" type="car"/>
	<trip id="191" depart="0.00" departPos="18" from="30137893#0" to="30137893#0" type="car"/>
	<trip id="192" depart="0.00" departPos="22" from="30016950#1" to="30016950#1" type="car"/>
	<trip id="193" depart="0.00" departPos="27" from="30016950#1" to="30016950#1" type="car"/>
	<trip id="194" depart="0.00" departPos="32" from="30016950#1" to="30016950#1" type="car"/>
	<trip id="195" depart="0.00" departPos="37" from="30016950#1" to="30016950#1" type="car"/>
	<trip id="196" depart="0.00" departPos="42" from="30016950#1" to="30016950#1" type="car"/>
	<trip id="197" depart="0.00" departPos="3" from="30016933#0" to="30016933#0" type="car"/>
	<trip id="198" depart="0.00" departPos="8" from="30016933#0" to="30016933#0" type="car"/>
	<trip id="199" depart="0.00" departPos="13" from="30016933#0" to="30016933#0" type="car"/>
	<trip id="200" depart="0.00" departPos="18" from="30016933#0" to="30016933#0" type="car"/>
	<trip id="201" depart="0.00" departPos="23" from="30016933#0" to="30016933#0" type="car"/>
	<trip id="202" depart="0.00" departPos="28" from="30016933#0" to="30016933#0" type="car"/>
	<trip id="203" depart="0.00" departPos="33" from="30016933#0" to="30016933#0" type="car"/>
	<trip id="204" depart="0.00" departPos="38" from="30016933#0" to="30016933#0" type="car"/>
	<trip id="205" depart="0.00" departPos="43" from="30016933#0" to="30016933#0" type="car"/>
	<trip id="206" depart="0.00" departPos="48" from="30016933#0" to="30016933#0" type="car"/>
	<trip id="207" depart="0.00" departPos="53" from="30016933#0" to="30016933#0" type="car"/>
	<trip id="208" depart="0.00" departPos="58" from="30016933#0" to="30016933#0" type="car"/>
	<trip id="209" depart="0.00" departPos="4" from="30016979#0" to="30016979#0" type="car"/>
	<trip id="210" depart="0.00" departPos="9" from="30016979#0" to="30016979#0" type="car"/>
	<trip id="211" depart="0.00" departPos="14" from="30016979#0" to="30016979#0" type="car"/>
	<trip id="212" depart="0.00" departPos="19" from="30016979#0" to="30016979#0" type="car"/>
	<trip id="213" depart="0.00" departPos="24" from="30016979#0" to="30016979#0" type="car"/>
	<trip id="214" depart="0.00" departPos="29" from="30016979#0" to="30016979#0" type="car"/>
	<trip id="215" depart="0.00" departPos="34" from="30016979#0" to="30016979#0" type="car"/>
	<trip id="216" depart="0.00" departPos="39" from="30016979#0" to="30016979#0" type="car"/>
	<trip id="217" depart="0.00" departPos="44" from="30016979#0" to="30016979#0" type="car"/>
	<trip id="218" depart="0.00" departPos="49" from="30016979#0" to="30016979#0" type="car"/>
	<trip id="219" depart="0.00" departPos="54" from="30016979#0" to="30016979#0" type="car"/>
	<trip id="220" depart="0.00" departPos="59" from="30016979#0" to="30016979#0" type="car"/>
	<trip id="221" depart="0.00" departPos="64" from="30016979#0" to="30016979#0" type="car"/>
	<trip id="222" depart="0.00" departPos="69" from="30016979#0" to="30016979#0" type="car"/>
	<trip id="223" depart="0.00" departPos="74" from="30016979#0" to="30016979#0" type="car"/>
	<trip id="224" depart="0.00" departPos="79" from="30016979#0" to="30016979#0" type="car"/>
	<trip id="225" depart="0.00" departPos="4" from="30016979#1" to="30016979#1" type="car"/>
	<trip id="226" depart="0.00" departPos="9" from="30016979#1" to="30016979#1" type="car"/>
	<trip id="227" depart="0.00" departPos="14" from="30016979#1" to="30016979#1" type="car"/>
	<trip id="228" depart="0.00" departPos="19" from="30016979#1" to="30016979#1" type="car"/>
	<trip id="229" depart="0.00" departPos="24" from="30016979#1" to="30016979#1" type="car"/>
	<trip id="230" depart="0.00" departPos="29" from="30016979#1" to="30016979#1" type="car"/>
	<trip id="231" depart="0.00" departPos="34" from="30016979#1" to="30016979#1" type="car"/>
	<trip id="232" depart="0.00" departPos="39" from="30016979#1" to="30016979#1" type="car"/>
	<trip id="233" depart="0.00" departPos="44" from="30016979#1" to="30016979#1" type="car"/>
	<trip id="234" depart="0.00" departPos="49" from="30016979#1" to="30016979#1" type="car"/>
	<trip id="235" depart="0.00" departPos="2" from="30016979#2" to="30016979#2" type="car"/>
	<trip id="236" depart="0.00" departPos="7" from="30016979#2" to="30016979#2" type="car"/>
	<trip id="237" depart="0.00" departPos="12" from="30016979#2" to="30016979#2" type="car"/>
	<trip id="238" depart="0.00" departPos="17" from="30016979#2" to="30016979#2" type="car"/>
	<trip id="239" depart="0.00" departPos="22" from="30016979#2" to="30016979#2" type="car"/>
	<trip id="240" depart="0.00" departPos="27" from="30016979#2" to="30016979#2" type="car"/>
	<trip id="241" depart="0.00" departPos="32" from="30016979#2" to="30016979#2" type="car"/>
	<trip id="242" depart="0.00" departPos="37" from="30016979#2" to="30016979#2" type="car"/>
	<trip id="243" depart="0.00" departPos="42" from="30016979#2" to="30016979#2" type="car"/>
	<trip id="244" depart="0.00" departPos="47" from="30016979#2" to="30016979#2" type="car"/>
	<trip id="245" depart="0.00" departPos="52" from="30016979#2" to="30016979#2" type="car"/>
	<trip id="246" depart="0.00" departPos="57" from="30016979#2" to="30016979#2" type="car"/>
	<trip id="247" depart="0.00" departPos="62" from="30016979#2" to="30016979#2" type="car"/>
	<trip id="248" depart="0.00" departPos="67" from="30016979#2" to="30016979#2" type="car"/>
	<trip id="249" depart="0.00" departPos="72" from="30016979#2" to="30016979#2" type="car"/>
	<trip id="250" depart="0.00" departPos="77" from="30016979#2" to="30016979#2" type="car"/>
	<trip id="251" depart="0.00" departPos="82" from="30016979#2" to="30016979#2" type="car"/>
	<trip id="252" depart="0.00" departPos="87" from="30016979#2" to="30016979#2" type="car"/>
	<trip id="253" depart="0.00" departPos="0" from="30016995" to="30016995" type="car"/>
	<trip id="254" depart="0.00" departPos="5" from="30016995" to="30016995" type="car"/>
	<trip id="255" depart="0.00" departPos="10" from="30016995" to="30016995" type="car"/>
	<trip id="256" depart="0.00" departPos="15" from="30016995" to="30016995" type="car"/>
	<trip id="257" depart="0.00" departPos="20" from="30016995" to="30016995" type="car"/>
	<trip id="258" depart="0.00" departPos="25" from="30016995" to="30016995" type="car"/>
	<trip id="259" depart="0.00" departPos="30" from="30016995" to="30016995" type="car"/>
	<trip id="260" depart="0.00" departPos="35" from="30016995" to="30016995" type="car"/>
	<trip id="261" depart="0.00" departPos="40" from="30016995" to="30016995" type="car"/>
	<trip id="262" depart="0.00" departPos="45" from="30016995" to="30016995" type="car"/>
	<trip id="263" depart="0.00" departPos="50" from="30016995" to="30016995" type="car"/>
	<trip id="264" depart="0.00" departPos="55" from="30016995" to="30016995" type="car"/>
	<trip id="265" depart="0.00" departPos="60" from="30016995" to="30016995" type="car"/>
	<trip id="266" depart="0.00" departPos="65" from="30016995" to="30016995" type="car"/>
	<trip id="267" depart="0.00" departPos="70" from="30016995" to="30016995" type="car"/>
	<trip id="268" depart="0.00" departPos="75" from="30016995" to="30016995" type="car"/>
	<trip id="269" depart="0.00" departPos="80" from="30016995" to="30016995" type="car"/>
	<trip id="270" depart="0.00" departPos="85" from="30016995" to="30016995" type="car"/>
	<trip id="271" depart="0.00" departPos="90" from="30016995" to="30016995" type="car"/>
	<trip id="272" depart="0.00" departPos="95" from="30016995" to="30016995" type="car"/>
	<trip id="273" depart="0.00" departPos="100" from="30016995" to="30016995" type="car"/>
	<trip id="274" depart="0.00" departPos="105" from="30016995" to="30016995" type="car"/>
	<trip id="275" depart="0.00" departPos="110" from="30016995" to="30016995" type="car"/>
	<trip id="276" depart="0.00" departPos="115" from="30016995" to="30016995" type="car"/>
	<trip id="277" depart="0.00" departPos="120" from="30016995" to="30016995" type="car"/>
	<trip id="278" depart="0.00" departPos="125" from="30016995" to="30016995" type="car"/>
	<trip id="279" depart="0.00" departPos="130" from="30016995" to="30016995" type="car"/>
	<trip id="280" depart="0.00" departPos="4" from="30017104#3" to="30017104#3" type="car"/>
	<trip id="281" depart="0.00" departPos="15" from="64115340" to="64115340" type="car"/>
	<trip id="282" depart="0.00" departPos="20" from="64115340" to="64115340" type="car"/>
	<trip id="283" depart="0.00" departPos="25" from="64115340" to="64115340" type="car"/>
	<trip id="284" depart="0.00" departPos="30" from="64115340" to="64115340" type="car"/>
	<trip id="285" depart="0.00" departPos="23" from="50076178#1" to="50076178#1" type="car"/>
	<trip id="286" depart="0.00" departPos="28" from="50076178#1" to="50076178#1" type="car"/>
	<trip id="287" depart="0.00" departPos="33" from="50076178#1" to="50076178#1" type="car"/>
	<trip id="288" depart="0.00" departPos="38" from="50076178#1" to="50076178#1" type="car"/>
	<trip id="289" depart="0.00" departPos="43" from="50076178#1" to="50076178#1" type="car"/>
	<trip id="290" depart="0.00" departPos="2" from="50076178#2" to="50076178#2" type="car"/>
	<trip id="291" depart="0.00" departPos="7" from="50076178#2" to="50076178#2" type="car"/>
	<trip id="292" depart="0.00" departPos="12" from="50076178#2" to="50076178#2" type="car"/>
	<trip id="293" depart="0.00" departPos="17" from="50076178#2" to="50076178#2" type="car"/>
	<trip id="294" depart="0.00" departPos="22" from="50076178#2" to="50076178#2" type="car"/>
	<trip id="295" depart="0.00" departPos="27" from="50076178#2" to="50076178#2" type="car"/>
	<trip id="296" depart="0.00" departPos="32" from="50076178#2" to="50076178#2" type="car"/>
	<trip id="297" depart="0.00" departPos="37" from="50076178#2" to="50076178#2" type="car"/>
	<trip id="298" depart="0.00" departPos="42" from="50076178#2" to="50076178#2" type="car"/>
	<trip id="299" depart="0.00" departPos="47" from="50076178#2" to="50076178#2" type="car"/>
	<trip id="300" depart="0.00" departPos="0" from="50076178#3" to="50076178#3" type="car"/>
	<trip id="301" depart="0.00" departPos="5" from="50076178#3" to="50076178#3" type="car"/>
	<trip id="302" depart="0.00" departPos="10" from="50076178#3" to="50076178#3" type="car"/>
	<trip id="303" depart="0.00" departPos="15" from="50076178#3" to="50076178#3" type="car"/>
	<trip id="304" depart="0.00" departPos="20" from="50076178#3" to="50076178#3" type="car"/>
	<trip id="305" depart="0.00" departPos="25" from="50076178#3" to="50076178#3" type="car"/>
	<trip id="306" depart="0.00" departPos="30" from="50076178#3" to="50076178#3" type="car"/>
	<trip id="307" depart="0.00" departPos="35" from="50076178#3" to="50076178#3" type="car"/>
	<trip id="308" depart="0.00" departPos="4" from="27380643#0" to="27380643#0" type="car"/>
	<trip id="309" depart="0.00" departPos="9" from="27380643#0" to="27380643#0" type="car"/>
	<trip id="310" depart="0.00" departPos="14" from="27380643#0" to="27380643#0" type="car"/>
	<trip id="311" depart="0.00" departPos="19" from="27380643#0" to="27380643#0" type="car"/>
	<trip id="312" depart="0.00" departPos="24" from="27380643#0" to="27380643#0" type="car"/>
	<trip id="313" depart="0.00" departPos="29" from="27380643#0" to="27380643#0" type="car"/>
	<trip id="314" depart="0.00" departPos="34" from="27380643#0" to="27380643#0" type="car"/>
	<trip id="315" depart="0.00" departPos="39" from="27380643#0" to="27380643#0" type="car"/>
	<trip id="316" depart="0.00" departPos="44" from="27380643#0" to="27380643#0" type="car"/>
	<trip id="317" depart="0.00" departPos="49" from="27380643#0" to="27380643#0" type="car"/>
	<trip id="318" depart="0.00" departPos="54" from="27380643#0" to="27380643#0" type="car"/>
	<trip id="319" depart="0.00" departPos="59" from="27380643#0" to="27380643#0" type="car"/>
	<trip id="320" depart="0.00" departPos="64" from="27380643#0" to="27380643#0" type="car"/>
	<trip id="321" depart="0.00" departPos="69" from="27380643#0" to="27380643#0" type="car"/>