<?xml version="1.0" encoding="UTF-8"?>

<!-- generated on Mar 24 Ott 15:39:15 2017 by Netedit Version 0.30.0
<?xml version="1.0" encoding="UTF-8"?>

<configuration xmlns:xsi="http://www.w3.org/2001/XMLSchema-instance" xsi:noNamespaceSchemaLocation="http://sumo.dlr.de/xsd/netconvertConfiguration.xsd">

    <input>
        <sumo-net-file value="Griglia.net.xml"/>
    </input>

    <output>
        <output-file value="Griglia.net.xml"/>
    </output>

    <processing>
        <no-turnarounds value="true"/>
        <offset.disable-normalization value="true"/>
        <lefthand value="false"/>
        <junctions.corner-detail value="0"/>
        <rectangular-lane-cut value="false"/>
    </processing>

    <visualisation>
        <registry-viewport value="true"/>
    </visualisation>

</configuration>
-->

<net version="0.27" xmlns:xsi="http://www.w3.org/2001/XMLSchema-instance" xsi:noNamespaceSchemaLocation="http://sumo.dlr.de/xsd/net_file.xsd">

    <location netOffset="0.00,0.00" convBoundary="0.00,0.00,3900.00,3900.00" origBoundary="0.00,0.00,3900.00,3900.00" projParameter="!"/>

    <edge id=":1_0" function="internal">
        <lane id=":1_0_0" index="0" speed="13.90" length="0.10" shape="300.00,-1.65 300.00,-1.65"/>
    </edge>
    <edge id=":10_0" function="internal">
        <lane id=":10_0_0" index="0" speed="13.90" length="0.10" shape="3000.00,-1.65 3000.00,-1.65"/>
    </edge>
    <edge id=":100_0" function="internal">
        <lane id=":100_0_0" index="0" speed="13.90" length="0.10" shape="600.00,2098.35 600.00,2098.35"/>
    </edge>
    <edge id=":101_0" function="internal">
        <lane id=":101_0_0" index="0" speed="13.90" length="0.10" shape="900.00,2098.35 900.00,2098.35"/>
    </edge>
    <edge id=":102_0" function="internal">
        <lane id=":102_0_0" index="0" speed="13.90" length="0.10" shape="1200.00,2098.35 1200.00,2098.35"/>
    </edge>
    <edge id=":103_0" function="internal">
        <lane id=":103_0_0" index="0" speed="13.90" length="0.10" shape="1500.00,2098.35 1500.00,2098.35"/>
    </edge>
    <edge id=":104_0" function="internal">
        <lane id=":104_0_0" index="0" speed="13.90" length="0.10" shape="1800.00,2098.35 1800.00,2098.35"/>
    </edge>
    <edge id=":105_0" function="internal">
        <lane id=":105_0_0" index="0" speed="13.90" length="0.10" shape="2100.00,2098.35 2100.00,2098.35"/>
    </edge>
    <edge id=":106_0" function="internal">
        <lane id=":106_0_0" index="0" speed="13.90" length="0.10" shape="2400.00,2098.35 2400.00,2098.35"/>
    </edge>
    <edge id=":107_0" function="internal">
        <lane id=":107_0_0" index="0" speed="13.90" length="0.10" shape="2700.00,2098.35 2700.00,2098.35"/>
    </edge>
    <edge id=":108_0" function="internal">
        <lane id=":108_0_0" index="0" speed="13.90" length="0.10" shape="3000.00,2098.35 3000.00,2098.35"/>
    </edge>
    <edge id=":109_0" function="internal">
        <lane id=":109_0_0" index="0" speed="13.90" length="0.10" shape="3300.00,2098.35 3300.00,2098.35"/>
    </edge>
    <edge id=":11_0" function="internal">
        <lane id=":11_0_0" index="0" speed="13.90" length="0.10" shape="3300.00,-1.65 3300.00,-1.65"/>
    </edge>
    <edge id=":110_0" function="internal">
        <lane id=":110_0_0" index="0" speed="13.90" length="0.10" shape="3600.00,2098.35 3600.00,2098.35"/>
    </edge>
    <edge id=":113_0" function="internal">
        <lane id=":113_0_0" index="0" speed="13.90" length="0.10" shape="300.00,2398.35 300.00,2398.35"/>
    </edge>
    <edge id=":114_0" function="internal">
        <lane id=":114_0_0" index="0" speed="13.90" length="0.10" shape="600.00,2398.35 600.00,2398.35"/>
    </edge>
    <edge id=":115_0" function="internal">
        <lane id=":115_0_0" index="0" speed="13.90" length="0.10" shape="900.00,2398.35 900.00,2398.35"/>
    </edge>
    <edge id=":116_0" function="internal">
        <lane id=":116_0_0" index="0" speed="13.90" length="0.10" shape="1200.00,2398.35 1200.00,2398.35"/>
    </edge>
    <edge id=":117_0" function="internal">
        <lane id=":117_0_0" index="0" speed="13.90" length="0.10" shape="1500.00,2398.35 1500.00,2398.35"/>
    </edge>
    <edge id=":118_0" function="internal">
        <lane id=":118_0_0" index="0" speed="13.90" length="0.10" shape="1800.00,2398.35 1800.00,2398.35"/>
    </edge>
    <edge id=":119_0" function="internal">
        <lane id=":119_0_0" index="0" speed="13.90" length="0.10" shape="2100.00,2398.35 2100.00,2398.35"/>
    </edge>
    <edge id=":12_0" function="internal">
        <lane id=":12_0_0" index="0" speed="13.90" length="0.10" shape="3600.00,-1.65 3600.00,-1.65"/>
    </edge>
    <edge id=":120_0" function="internal">
        <lane id=":120_0_0" index="0" speed="13.90" length="0.10" shape="2400.00,2398.35 2400.00,2398.35"/>
    </edge>
    <edge id=":121_0" function="internal">
        <lane id=":121_0_0" index="0" speed="13.90" length="0.10" shape="2700.00,2398.35 2700.00,2398.35"/>
    </edge>
    <edge id=":122_0" function="internal">
        <lane id=":122_0_0" index="0" speed="13.90" length="0.10" shape="3000.00,2398.35 3000.00,2398.35"/>
    </edge>
    <edge id=":123_0" function="internal">
        <lane id=":123_0_0" index="0" speed="13.90" length="0.10" shape="3300.00,2398.35 3300.00,2398.35"/>
    </edge>
    <edge id=":124_0" function="internal">
        <lane id=":124_0_0" index="0" speed="13.90" length="0.10" shape="3600.00,2398.35 3600.00,2398.35"/>
    </edge>
    <edge id=":127_0" function="internal">
        <lane id=":127_0_0" index="0" speed="13.90" length="0.10" shape="300.00,2698.35 300.00,2698.35"/>
    </edge>
    <edge id=":128_0" function="internal">
        <lane id=":128_0_0" index="0" speed="13.90" length="0.10" shape="600.00,2698.35 600.00,2698.35"/>
    </edge>
    <edge id=":129_0" function="internal">
        <lane id=":129_0_0" index="0" speed="13.90" length="0.10" shape="900.00,2698.35 900.00,2698.35"/>
    </edge>
    <edge id=":13_0" function="internal">
        <lane id=":13_0_0" index="0" speed="13.90" length="2.58" shape="3900.05,-1.65 3900.75,-1.55 3901.25,-1.25 3901.55,-0.75 3901.65,-0.05"/>
    </edge>
    <edge id=":130_0" function="internal">
        <lane id=":130_0_0" index="0" speed="13.90" length="0.10" shape="1200.00,2698.35 1200.00,2698.35"/>
    </edge>
    <edge id=":131_0" function="internal">
        <lane id=":131_0_0" index="0" speed="13.90" length="0.10" shape="1500.00,2698.35 1500.00,2698.35"/>
    </edge>
    <edge id=":132_0" function="internal">
        <lane id=":132_0_0" index="0" speed="13.90" length="0.10" shape="1800.00,2698.35 1800.00,2698.35"/>
    </edge>
    <edge id=":133_0" function="internal">
        <lane id=":133_0_0" index="0" speed="13.90" length="0.10" shape="2100.00,2698.35 2100.00,2698.35"/>
    </edge>
    <edge id=":134_0" function="internal">
        <lane id=":134_0_0" index="0" speed="13.90" length="0.10" shape="2400.00,2698.35 2400.00,2698.35"/>
    </edge>
    <edge id=":135_0" function="internal">
        <lane id=":135_0_0" index="0" speed="13.90" length="0.10" shape="2700.00,2698.35 2700.00,2698.35"/>
    </edge>
    <edge id=":136_0" function="internal">
        <lane id=":136_0_0" index="0" speed="13.90" length="0.10" shape="3000.00,2698.35 3000.00,2698.35"/>
    </edge>
    <edge id=":137_0" function="internal">
        <lane id=":137_0_0" index="0" speed="13.90" length="0.10" shape="3300.00,2698.35 3300.00,2698.35"/>
    </edge>
    <edge id=":138_0" function="internal">
        <lane id=":138_0_0" index="0" speed="13.90" length="0.10" shape="3600.00,2698.35 3600.00,2698.35"/>
    </edge>
    <edge id=":141_0" function="internal">
        <lane id=":141_0_0" index="0" speed="13.89" length="5.00" shape="298.35,3001.45 298.54,3000.09 299.12,2999.12 300.09,2998.54 301.45,2998.35"/>
    </edge>
    <edge id=":141_1" function="internal">
        <lane id=":141_1_0" index="0" speed="13.90" length="6.20" shape="295.25,2998.35 301.45,2998.35"/>
    </edge>
    <edge id=":142_0" function="internal">
        <lane id=":142_0_0" index="0" speed="13.89" length="5.00" shape="598.35,3001.45 598.54,3000.09 599.12,2999.12 600.09,2998.54 601.45,2998.35"/>
    </edge>
    <edge id=":142_1" function="internal">
        <lane id=":142_1_0" index="0" speed="13.90" length="6.20" shape="595.25,2998.35 601.45,2998.35"/>
    </edge>
    <edge id=":143_0" function="internal">
        <lane id=":143_0_0" index="0" speed="13.89" length="5.00" shape="898.35,3001.45 898.54,3000.09 899.12,2999.12 900.09,2998.54 901.45,2998.35"/>
    </edge>
    <edge id=":143_1" function="internal">
        <lane id=":143_1_0" index="0" speed="13.90" length="6.20" shape="895.25,2998.35 901.45,2998.35"/>
    </edge>
    <edge id=":144_0" function="internal">
        <lane id=":144_0_0" index="0" speed="13.90" length="6.20" shape="1198.55,2998.35 1204.75,2998.35"/>
    </edge>
    <edge id=":144_1" function="internal">
        <lane id=":144_1_0" index="0" speed="13.89" length="5.00" shape="1198.55,2998.35 1199.91,2998.54 1200.88,2999.12 1201.46,3000.09 1201.65,3001.45"/>
    </edge>
    <edge id=":145_0" function="internal">
        <lane id=":145_0_0" index="0" speed="13.90" length="0.10" shape="1500.00,2998.35 1500.00,2998.35"/>
    </edge>
    <edge id=":146_0" function="internal">
        <lane id=":146_0_0" index="0" speed="13.90" length="0.10" shape="1800.00,2998.35 1800.00,2998.35"/>
    </edge>
    <edge id=":147_0" function="internal">
        <lane id=":147_0_0" index="0" speed="13.90" length="0.10" shape="2100.00,2998.35 2100.00,2998.35"/>
    </edge>
    <edge id=":148_0" function="internal">
        <lane id=":148_0_0" index="0" speed="13.90" length="0.10" shape="2400.00,2998.35 2400.00,2998.35"/>
    </edge>
    <edge id=":149_0" function="internal">
        <lane id=":149_0_0" index="0" speed="13.90" length="0.10" shape="2700.00,2998.35 2700.00,2998.35"/>
    </edge>
    <edge id=":15_0" function="internal">
        <lane id=":15_0_0" index="0" speed="13.90" length="0.10" shape="300.00,298.35 300.00,298.35"/>
    </edge>
    <edge id=":150_0" function="internal">
        <lane id=":150_0_0" index="0" speed="13.90" length="0.10" shape="3000.00,2998.35 3000.00,2998.35"/>
    </edge>
    <edge id=":151_0" function="internal">
        <lane id=":151_0_0" index="0" speed="13.90" length="0.10" shape="3300.00,2998.35 3300.00,2998.35"/>
    </edge>
    <edge id=":152_0" function="internal">
        <lane id=":152_0_0" index="0" speed="13.90" length="0.10" shape="3600.00,2998.35 3600.00,2998.35"/>
    </edge>
    <edge id=":155_0" function="internal">
        <lane id=":155_0_0" index="0" speed="13.89" length="6.20" shape="298.35,3301.45 298.35,3295.25"/>
    </edge>
    <edge id=":155_1" function="internal">
        <lane id=":155_1_0" index="0" speed="13.89" length="5.00" shape="298.35,3301.45 298.54,3300.09 299.12,3299.12 300.09,3298.54 301.45,3298.35"/>
    </edge>
    <edge id=":155_2" function="internal">
        <lane id=":155_2_0" index="0" speed="13.89" length="5.00" shape="295.25,3298.35 296.61,3298.16 297.58,3297.57 298.16,3296.61 298.35,3295.25"/>
    </edge>
    <edge id=":155_3" function="internal">
        <lane id=":155_3_0" index="0" speed="13.90" length="6.20" shape="295.25,3298.35 301.45,3298.35"/>
    </edge>
    <edge id=":156_0" function="internal">
        <lane id=":156_0_0" index="0" speed="13.89" length="6.20" shape="598.35,3301.45 598.35,3295.25"/>
    </edge>
    <edge id=":156_1" function="internal">
        <lane id=":156_1_0" index="0" speed="13.89" length="5.00" shape="598.35,3301.45 598.54,3300.09 599.12,3299.12 600.09,3298.54 601.45,3298.35"/>
    </edge>
    <edge id=":156_2" function="internal">
        <lane id=":156_2_0" index="0" speed="13.89" length="5.00" shape="595.25,3298.35 596.61,3298.16 597.58,3297.57 598.16,3296.61 598.35,3295.25"/>
    </edge>
    <edge id=":156_3" function="internal">
        <lane id=":156_3_0" index="0" speed="13.90" length="6.20" shape="595.25,3298.35 601.45,3298.35"/>
    </edge>
    <edge id=":157_0" function="internal">
        <lane id=":157_0_0" index="0" speed="13.89" length="6.20" shape="898.35,3301.45 898.35,3295.25"/>
    </edge>
    <edge id=":157_1" function="internal">
        <lane id=":157_1_0" index="0" speed="13.89" length="5.00" shape="898.35,3301.45 898.54,3300.09 899.12,3299.12 900.09,3298.54 901.45,3298.35"/>
    </edge>
    <edge id=":157_2" function="internal">
        <lane id=":157_2_0" index="0" speed="13.89" length="5.00" shape="895.25,3298.35 896.61,3298.16 897.57,3297.57 898.16,3296.61 898.35,3295.25"/>
    </edge>
    <edge id=":157_3" function="internal">
        <lane id=":157_3_0" index="0" speed="13.90" length="6.20" shape="895.25,3298.35 901.45,3298.35"/>
    </edge>
    <edge id=":158_0" function="internal">
        <lane id=":158_0_0" index="0" speed="13.89" length="4.32" shape="1198.35,3301.45 1198.75,3300.09 1199.95,3299.12 1201.26,3298.74"/>
    </edge>
    <edge id=":158_3" function="internal">
        <lane id=":158_3_0" index="0" speed="13.89" length="3.52" shape="1201.26,3298.74 1201.95,3298.54 1204.75,3298.35"/>
    </edge>
    <edge id=":158_1" function="internal">
        <lane id=":158_1_0" index="0" speed="13.89" length="5.00" shape="1201.65,3295.25 1201.84,3296.61 1202.43,3297.58 1203.39,3298.16 1204.75,3298.35"/>
    </edge>
    <edge id=":158_2" function="internal">
        <lane id=":158_2_0" index="0" speed="13.90" length="9.50" shape="1195.25,3298.35 1204.75,3298.35"/>
    </edge>
    <edge id=":159_0" function="internal">
        <lane id=":159_0_0" index="0" speed="13.90" length="0.10" shape="1500.00,3298.35 1500.00,3298.35"/>
    </edge>
    <edge id=":16_0" function="internal">
        <lane id=":16_0_0" index="0" speed="13.90" length="0.10" shape="600.00,298.35 600.00,298.35"/>
    </edge>
    <edge id=":160_0" function="internal">
        <lane id=":160_0_0" index="0" speed="13.90" length="0.10" shape="1800.00,3298.35 1800.00,3298.35"/>
    </edge>
    <edge id=":161_0" function="internal">
        <lane id=":161_0_0" index="0" speed="13.90" length="0.10" shape="2100.00,3298.35 2100.00,3298.35"/>
    </edge>
    <edge id=":162_0" function="internal">
        <lane id=":162_0_0" index="0" speed="13.90" length="0.10" shape="2400.00,3298.35 2400.00,3298.35"/>
    </edge>
    <edge id=":163_0" function="internal">
        <lane id=":163_0_0" index="0" speed="13.90" length="0.10" shape="2700.00,3298.35 2700.00,3298.35"/>
    </edge>
    <edge id=":164_0" function="internal">
        <lane id=":164_0_0" index="0" speed="13.90" length="0.10" shape="3000.00,3298.35 3000.00,3298.35"/>
    </edge>
    <edge id=":165_0" function="internal">
        <lane id=":165_0_0" index="0" speed="13.90" length="0.10" shape="3300.00,3298.35 3300.00,3298.35"/>
    </edge>
    <edge id=":166_0" function="internal">
        <lane id=":166_0_0" index="0" speed="13.90" length="0.10" shape="3600.00,3298.35 3600.00,3298.35"/>
    </edge>
    <edge id=":169_0" function="internal">
        <lane id=":169_0_0" index="0" speed="13.89" length="6.20" shape="298.35,3601.45 298.35,3595.25"/>
    </edge>
    <edge id=":169_1" function="internal">
        <lane id=":169_1_0" index="0" speed="13.89" length="5.00" shape="298.35,3601.45 298.54,3600.09 299.12,3599.12 300.09,3598.54 301.45,3598.35"/>
    </edge>
    <edge id=":169_2" function="internal">
        <lane id=":169_2_0" index="0" speed="13.89" length="5.00" shape="295.25,3598.35 296.61,3598.16 297.58,3597.57 298.16,3596.61 298.35,3595.25"/>
    </edge>
    <edge id=":169_3" function="internal">
        <lane id=":169_3_0" index="0" speed="13.90" length="6.20" shape="295.25,3598.35 301.45,3598.35"/>
    </edge>
    <edge id=":17_0" function="internal">
        <lane id=":17_0_0" index="0" speed="13.90" length="0.10" shape="900.00,298.35 900.00,298.35"/>
    </edge>
    <edge id=":170_0" function="internal">
        <lane id=":170_0_0" index="0" speed="13.89" length="6.20" shape="598.35,3601.45 598.35,3595.25"/>
    </edge>
    <edge id=":170_1" function="internal">
        <lane id=":170_1_0" index="0" speed="13.89" length="5.00" shape="598.35,3601.45 598.54,3600.09 599.12,3599.12 600.09,3598.54 601.45,3598.35"/>
    </edge>
    <edge id=":170_2" function="internal">
        <lane id=":170_2_0" index="0" speed="13.89" length="5.00" shape="595.25,3598.35 596.61,3598.16 597.58,3597.57 598.16,3596.61 598.35,3595.25"/>
    </edge>
    <edge id=":170_3" function="internal">
        <lane id=":170_3_0" index="0" speed="13.90" length="6.20" shape="595.25,3598.35 601.45,3598.35"/>
    </edge>
    <edge id=":171_0" function="internal">
        <lane id=":171_0_0" index="0" speed="13.89" length="6.20" shape="898.35,3601.45 898.35,3595.25"/>
    </edge>
    <edge id=":171_1" function="internal">
        <lane id=":171_1_0" index="0" speed="13.89" length="5.00" shape="898.35,3601.45 898.54,3600.09 899.12,3599.12 900.09,3598.54 901.45,3598.35"/>
    </edge>
    <edge id=":171_2" function="internal">
        <lane id=":171_2_0" index="0" speed="13.89" length="5.00" shape="895.25,3598.35 896.61,3598.16 897.57,3597.57 898.16,3596.61 898.35,3595.25"/>
    </edge>
    <edge id=":171_3" function="internal">
        <lane id=":171_3_0" index="0" speed="13.90" length="6.20" shape="895.25,3598.35 901.45,3598.35"/>
    </edge>
    <edge id=":172_0" function="internal">
        <lane id=":172_0_0" index="0" speed="13.89" length="6.20" shape="1198.35,3601.45 1198.35,3595.25"/>
    </edge>
    <edge id=":172_1" function="internal">
        <lane id=":172_1_0" index="0" speed="13.89" length="5.00" shape="1198.35,3601.45 1198.54,3600.09 1199.12,3599.12 1200.09,3598.54 1201.45,3598.35"/>
    </edge>
    <edge id=":172_2" function="internal">
        <lane id=":172_2_0" index="0" speed="13.89" length="5.00" shape="1195.25,3598.35 1196.61,3598.16 1197.57,3597.57 1198.16,3596.61 1198.35,3595.25"/>
    </edge>
    <edge id=":172_3" function="internal">
        <lane id=":172_3_0" index="0" speed="13.90" length="6.20" shape="1195.25,3598.35 1201.45,3598.35"/>
    </edge>
    <edge id=":173_0" function="internal">
        <lane id=":173_0_0" index="0" speed="13.90" length="0.10" shape="1500.00,3598.35 1500.00,3598.35"/>
    </edge>
    <edge id=":174_0" function="internal">
        <lane id=":174_0_0" index="0" speed="13.90" length="0.10" shape="1800.00,3598.35 1800.00,3598.35"/>
    </edge>
    <edge id=":175_0" function="internal">
        <lane id=":175_0_0" index="0" speed="13.90" length="0.10" shape="2100.00,3598.35 2100.00,3598.35"/>
    </edge>
    <edge id=":176_0" function="internal">
        <lane id=":176_0_0" index="0" speed="13.90" length="0.10" shape="2400.00,3598.35 2400.00,3598.35"/>
    </edge>
    <edge id=":177_0" function="internal">
        <lane id=":177_0_0" index="0" speed="13.90" length="0.10" shape="2700.00,3598.35 2700.00,3598.35"/>
    </edge>
    <edge id=":178_0" function="internal">
        <lane id=":178_0_0" index="0" speed="13.90" length="0.10" shape="3000.00,3598.35 3000.00,3598.35"/>
    </edge>
    <edge id=":179_0" function="internal">
        <lane id=":179_0_0" index="0" speed="13.90" length="0.10" shape="3300.00,3598.35 3300.00,3598.35"/>
    </edge>
    <edge id=":18_0" function="internal">
        <lane id=":18_0_0" index="0" speed="13.90" length="0.10" shape="1200.00,298.35 1200.00,298.35"/>
    </edge>
    <edge id=":180_0" function="internal">
        <lane id=":180_0_0" index="0" speed="13.90" length="0.10" shape="3600.00,3598.35 3600.00,3598.35"/>
    </edge>
    <edge id=":182_0" function="internal">
        <lane id=":182_0_0" index="0" speed="13.90" length="2.58" shape="1.65,3896.75 1.75,3897.45 2.05,3897.95 2.55,3898.25 3.25,3898.35"/>
    </edge>
    <edge id=":183_0" function="internal">
        <lane id=":183_0_0" index="0" speed="13.89" length="5.00" shape="295.25,3898.35 296.61,3898.16 297.58,3897.57 298.16,3896.61 298.35,3895.25"/>
    </edge>
    <edge id=":183_1" function="internal">
        <lane id=":183_1_0" index="0" speed="13.90" length="6.20" shape="295.25,3898.35 301.45,3898.35"/>
    </edge>
    <edge id=":184_0" function="internal">
        <lane id=":184_0_0" index="0" speed="13.89" length="5.00" shape="595.25,3898.35 596.61,3898.16 597.58,3897.57 598.16,3896.61 598.35,3895.25"/>
    </edge>
    <edge id=":184_1" function="internal">
        <lane id=":184_1_0" index="0" speed="13.90" length="6.20" shape="595.25,3898.35 601.45,3898.35"/>
    </edge>
    <edge id=":185_0" function="internal">
        <lane id=":185_0_0" index="0" speed="13.89" length="5.00" shape="895.25,3898.35 896.61,3898.16 897.57,3897.57 898.16,3896.61 898.35,3895.25"/>
    </edge>
    <edge id=":185_1" function="internal">
        <lane id=":185_1_0" index="0" speed="13.90" length="6.20" shape="895.25,3898.35 901.45,3898.35"/>
    </edge>
    <edge id=":186_0" function="internal">
        <lane id=":186_0_0" index="0" speed="13.89" length="5.00" shape="1195.25,3898.35 1196.61,3898.16 1197.57,3897.57 1198.16,3896.61 1198.35,3895.25"/>
    </edge>
    <edge id=":186_1" function="internal">
        <lane id=":186_1_0" index="0" speed="13.90" length="6.20" shape="1195.25,3898.35 1201.45,3898.35"/>
    </edge>
    <edge id=":187_0" function="internal">
        <lane id=":187_0_0" index="0" speed="13.90" length="0.10" shape="1500.00,3898.35 1500.00,3898.35"/>
    </edge>
    <edge id=":188_0" function="internal">
        <lane id=":188_0_0" index="0" speed="13.90" length="0.10" shape="1800.00,3898.35 1800.00,3898.35"/>
    </edge>
    <edge id=":189_0" function="internal">
        <lane id=":189_0_0" index="0" speed="13.90" length="0.10" shape="2100.00,3898.35 2100.00,3898.35"/>
    </edge>
    <edge id=":19_0" function="internal">
        <lane id=":19_0_0" index="0" speed="13.90" length="0.10" shape="1500.00,298.35 1500.00,298.35"/>
    </edge>
    <edge id=":190_0" function="internal">
        <lane id=":190_0_0" index="0" speed="13.90" length="0.10" shape="2400.00,3898.35 2400.00,3898.35"/>
    </edge>
    <edge id=":191_0" function="internal">
        <lane id=":191_0_0" index="0" speed="13.90" length="0.10" shape="2700.00,3898.35 2700.00,3898.35"/>
    </edge>
    <edge id=":192_0" function="internal">
        <lane id=":192_0_0" index="0" speed="13.90" length="0.10" shape="3000.00,3898.35 3000.00,3898.35"/>
    </edge>
    <edge id=":193_0" function="internal">
        <lane id=":193_0_0" index="0" speed="13.90" length="0.10" shape="3300.00,3898.35 3300.00,3898.35"/>
    </edge>
    <edge id=":194_0" function="internal">
        <lane id=":194_0_0" index="0" speed="13.90" length="0.10" shape="3600.00,3898.35 3600.00,3898.35"/>
    </edge>
    <edge id=":2_0" function="internal">
        <lane id=":2_0_0" index="0" speed="13.90" length="0.10" shape="600.00,-1.65 600.00,-1.65"/>
    </edge>
    <edge id=":20_0" function="internal">
        <lane id=":20_0_0" index="0" speed="13.90" length="0.10" shape="1800.00,298.35 1800.00,298.35"/>
    </edge>
    <edge id=":21_0" function="internal">
        <lane id=":21_0_0" index="0" speed="13.90" length="0.10" shape="2100.00,298.35 2100.00,298.35"/>
    </edge>
    <edge id=":22_0" function="internal">
        <lane id=":22_0_0" index="0" speed="13.90" length="0.10" shape="2400.00,298.35 2400.00,298.35"/>
    </edge>
    <edge id=":23_0" function="internal">
        <lane id=":23_0_0" index="0" speed="13.90" length="0.10" shape="2700.00,298.35 2700.00,298.35"/>
    </edge>
    <edge id=":24_0" function="internal">
        <lane id=":24_0_0" index="0" speed="13.90" length="0.10" shape="3000.00,298.35 3000.00,298.35"/>
    </edge>
    <edge id=":25_0" function="internal">
        <lane id=":25_0_0" index="0" speed="13.90" length="0.10" shape="3300.00,298.35 3300.00,298.35"/>
    </edge>
    <edge id=":26_0" function="internal">
        <lane id=":26_0_0" index="0" speed="13.90" length="0.10" shape="3600.00,298.35 3600.00,298.35"/>
    </edge>
    <edge id=":29_0" function="internal">
        <lane id=":29_0_0" index="0" speed="13.90" length="0.10" shape="300.00,598.35 300.00,598.35"/>
    </edge>
    <edge id=":3_0" function="internal">
        <lane id=":3_0_0" index="0" speed="13.90" length="0.10" shape="900.00,-1.65 900.00,-1.65"/>
    </edge>
    <edge id=":30_0" function="internal">
        <lane id=":30_0_0" index="0" speed="13.90" length="0.10" shape="600.00,598.35 600.00,598.35"/>
    </edge>
    <edge id=":31_0" function="internal">
        <lane id=":31_0_0" index="0" speed="13.90" length="0.10" shape="900.00,598.35 900.00,598.35"/>
    </edge>
    <edge id=":32_0" function="internal">
        <lane id=":32_0_0" index="0" speed="13.90" length="0.10" shape="1200.00,598.35 1200.00,598.35"/>
    </edge>
    <edge id=":33_0" function="internal">
        <lane id=":33_0_0" index="0" speed="13.90" length="0.10" shape="1500.00,598.35 1500.00,598.35"/>
    </edge>
    <edge id=":34_0" function="internal">
        <lane id=":34_0_0" index="0" speed="13.90" length="0.10" shape="1800.00,598.35 1800.00,598.35"/>
    </edge>
    <edge id=":35_0" function="internal">
        <lane id=":35_0_0" index="0" speed="13.90" length="0.10" shape="2100.00,598.35 2100.00,598.35"/>
    </edge>
    <edge id=":36_0" function="internal">
        <lane id=":36_0_0" index="0" speed="13.90" length="0.10" shape="2400.00,598.35 2400.00,598.35"/>
    </edge>
    <edge id=":37_0" function="internal">
        <lane id=":37_0_0" index="0" speed="13.90" length="0.10" shape="2700.00,598.35 2700.00,598.35"/>
    </edge>
    <edge id=":38_0" function="internal">
        <lane id=":38_0_0" index="0" speed="13.90" length="0.10" shape="3000.00,598.35 3000.00,598.35"/>
    </edge>
    <edge id=":39_0" function="internal">
        <lane id=":39_0_0" index="0" speed="13.90" length="0.10" shape="3300.00,598.35 3300.00,598.35"/>
    </edge>
    <edge id=":4_0" function="internal">
        <lane id=":4_0_0" index="0" speed="13.90" length="0.10" shape="1200.00,-1.65 1200.00,-1.65"/>
    </edge>
    <edge id=":40_0" function="internal">
        <lane id=":40_0_0" index="0" speed="13.90" length="0.10" shape="3600.00,598.35 3600.00,598.35"/>
    </edge>
    <edge id=":43_0" function="internal">
        <lane id=":43_0_0" index="0" speed="13.90" length="0.10" shape="300.00,898.35 300.00,898.35"/>
    </edge>
    <edge id=":44_0" function="internal">
        <lane id=":44_0_0" index="0" speed="13.90" length="0.10" shape="600.00,898.35 600.00,898.35"/>
    </edge>
    <edge id=":45_0" function="internal">
        <lane id=":45_0_0" index="0" speed="13.90" length="0.10" shape="900.00,898.35 900.00,898.35"/>
    </edge>
    <edge id=":46_0" function="internal">
        <lane id=":46_0_0" index="0" speed="13.90" length="0.10" shape="1200.00,898.35 1200.00,898.35"/>
    </edge>
    <edge id=":47_0" function="internal">
        <lane id=":47_0_0" index="0" speed="13.90" length="0.10" shape="1500.00,898.35 1500.00,898.35"/>
    </edge>
    <edge id=":48_0" function="internal">
        <lane id=":48_0_0" index="0" speed="13.90" length="0.10" shape="1800.00,898.35 1800.00,898.35"/>
    </edge>
    <edge id=":49_0" function="internal">
        <lane id=":49_0_0" index="0" speed="13.90" length="0.10" shape="2100.00,898.35 2100.00,898.35"/>
    </edge>
    <edge id=":5_0" function="internal">
        <lane id=":5_0_0" index="0" speed="13.90" length="0.10" shape="1500.00,-1.65 1500.00,-1.65"/>
    </edge>
    <edge id=":50_0" function="internal">
        <lane id=":50_0_0" index="0" speed="13.90" length="0.10" shape="2400.00,898.35 2400.00,898.35"/>
    </edge>
    <edge id=":51_0" function="internal">
        <lane id=":51_0_0" index="0" speed="13.90" length="0.10" shape="2700.00,898.35 2700.00,898.35"/>
    </edge>
    <edge id=":52_0" function="internal">
        <lane id=":52_0_0" index="0" speed="13.90" length="0.10" shape="3000.00,898.35 3000.00,898.35"/>
    </edge>
    <edge id=":53_0" function="internal">
        <lane id=":53_0_0" index="0" speed="13.90" length="0.10" shape="3300.00,898.35 3300.00,898.35"/>
    </edge>
    <edge id=":54_0" function="internal">
        <lane id=":54_0_0" index="0" speed="13.90" length="0.10" shape="3600.00,898.35 3600.00,898.35"/>
    </edge>
    <edge id=":57_0" function="internal">
        <lane id=":57_0_0" index="0" speed="13.90" length="0.10" shape="300.00,1198.35 300.00,1198.35"/>
    </edge>
    <edge id=":58_0" function="internal">
        <lane id=":58_0_0" index="0" speed="13.90" length="0.10" shape="600.00,1198.35 600.00,1198.35"/>
    </edge>
    <edge id=":59_0" function="internal">
        <lane id=":59_0_0" index="0" speed="13.90" length="0.10" shape="900.00,1198.35 900.00,1198.35"/>
    </edge>
    <edge id=":6_0" function="internal">
        <lane id=":6_0_0" index="0" speed="13.90" length="0.10" shape="1800.00,-1.65 1800.00,-1.65"/>
    </edge>
    <edge id=":60_0" function="internal">
        <lane id=":60_0_0" index="0" speed="13.90" length="0.10" shape="1200.00,1198.35 1200.00,1198.35"/>
    </edge>
    <edge id=":61_0" function="internal">
        <lane id=":61_0_0" index="0" speed="13.90" length="0.10" shape="1500.00,1198.35 1500.00,1198.35"/>
    </edge>
    <edge id=":62_0" function="internal">
        <lane id=":62_0_0" index="0" speed="13.90" length="0.10" shape="1800.00,1198.35 1800.00,1198.35"/>
    </edge>
    <edge id=":63_0" function="internal">
        <lane id=":63_0_0" index="0" speed="13.90" length="0.10" shape="2100.00,1198.35 2100.00,1198.35"/>
    </edge>
    <edge id=":64_0" function="internal">
        <lane id=":64_0_0" index="0" speed="13.90" length="0.10" shape="2400.00,1198.35 2400.00,1198.35"/>
    </edge>
    <edge id=":65_0" function="internal">
        <lane id=":65_0_0" index="0" speed="13.90" length="0.10" shape="2700.00,1198.35 2700.00,1198.35"/>
    </edge>
    <edge id=":66_0" function="internal">
        <lane id=":66_0_0" index="0" speed="13.90" length="0.10" shape="3000.00,1198.35 3000.00,1198.35"/>
    </edge>
    <edge id=":67_0" function="internal">