<?xml version="1.0"?>
<!-- generated on 2018-12-08 18:25:59.111480 by $Id: route2trips.py 23614 2017-03-22 13:02:46Z luecken $ via randomTrips.py
  options: 
-->
<routes xmlns:xsi="http://www.w3.org/2001/XMLSchema-instance" xsi:noNamespaceSchemaLocation="http://sumo.dlr.de/xsd/routes_file.xsd">
    <vType id="passenger" vClass="passenger">
    </vType>
    <trip id="veh0" depart="0.00" departLane="best" from="25302636#1" to="-19002363#10" type="passenger"/>
    <trip id="veh2" depart="35.41" departLane="best" from="183415643" to="-19002363#2" type="passenger"/>
    <trip id="veh3" depart="53.12" departLane="best" from="-36892597#1" to="23813206#2" type="passenger"/>
    <trip id="veh4" depart="70.83" departLane="best" from="-19002363#10" to="-437325047#0" type="passenger"/>
    <trip id="veh5" depart="88.54" departLane="best" from="-36892597#1" to="25294729#1" type="passenger"/>
    <trip id="veh6" depart="106.24" departLane="best" from="4610351#2" to="-156364570#3" type="passenger"/>
    <trip id="veh7" depart="123.95" departLane="best" from="-560370523" to="-316746323#0" type="passenger"/>
    <trip id="veh9" depart="159.36" departLane="best" from="234463931#5" to="83517332#1" type="passenger"/>
    <trip id="veh10" depart="177.07" departLane="best" from="112128419#1" to="24913519#2" type="passenger"/>
    <trip id="veh12" depart="212.49" departLane="best" from="-387892378" to="-84960597#1" type="passenger"/>
    <trip id="veh14" depart="247.90" departLane="best" from="-23809670#3" to="-72678523#0" type="passenger"/>
    <trip id="veh15" depart="265.61" departLane="best" from="25294729#0" to="188914559" type="passenger"/>
    <trip id="veh16" depart="283.32" departLane="best" from="-4613293" to="55741054" type="passenger"/>
    <trip id="veh17" depart="301.02" departLane="best" from="-25294729#1" to="454285423#2" type="passenger"/>
    <trip id="veh18" depart="318.73" departLane="best" from="84960597#0" to="30721662#3" type="passenger"/>
    <trip id="veh21" depart="371.85" departLane="best" from="-387892378" to="-19002363#3" type="passenger"/>
    <trip id="veh22" depart="389.56" departLane="best" from="-51167934#3" to="-534588621#1" type="passenger"/>
    <trip id="veh24" depart="424.97" departLane="best" from="30721660#1" to="195401006" type="passenger"/>
    <trip id="veh25" depart="442.68" departLane="best" from="-4613293" to="-48664717#1" type="passenger"/>
    <trip id="veh26" depart="460.39" departLane="best" from="23809678#5" to="-534588621#0" type="passenger"/>
    <trip id="veh27" depart="478.09" departLane="best" from="24241797#0" to="490365295#3" type="passenger"/>
    <trip id="veh28" depart="495.80" departLane="best" from="156364570#4" to="-454285423#3" type="passenger"/>
    <trip id="veh29" depart="513.51" departLane="best" from="84960597#3" to="23852053#0" type="passenger"/>
    <trip id="veh31" depart="548.92" departLane="best" from="-23813206#0" to="30721660#4" type="passenger"/>
    <trip id="veh34" depart="602.04" departLane="best" from="83517332#0" to="4773465#0" type="passenger"/>
    <trip id="veh35" depart="619.75" departLane="best" from="-168942727#0" to="437325047#3" type="passenger"/>
    <trip id="veh36" depart="637.46" departLane="best" from="-4613293" to="30721662#3" type="passenger"/>
    <trip id="veh38" depart="672.87" departLane="best" from="19002403#0" to="72157174#0" type="passenger"/>
    <trip id="veh39" depart="690.58" departLane="best" from="4613292#0" to="-534588621#0" type="passenger"/>
    <trip id="veh41" depart="725.99" departLane="best" from="-493008124" to="30721662#2" type="passenger"/>
    <trip id="veh42" depart="743.70" departLane="best" from="24990168" to="-28016312#3" type="passenger"/>
    <trip id="veh43" depart="761.41" departLane="best" from="454285423#0" to="24241790#0" type="passenger"/>
    <trip id="veh44" depart="779.12" departLane="best" from="-156364570#0" to="139877314#2" type="passenger"/>
    <trip id="veh45" depart="796.82" departLane="best" from="-188914559" to="51167934#2" type="passenger"/>
    <trip id="veh46" depart="814.53" departLane="best" from="4613292#2" to="4613295" type="passenger"/>
    <trip id="veh47" depart="832.24" departLane="best" from="-51167934#0" to="-234463931#2" type="passenger"/>
    <trip id="veh48" depart="849.95" departLane="best" from="4613292#2" to="560370523" type="passenger"/>
    <trip id="veh50" depart="885.36" departLane="best" from="437325047#0" to="-24993933#0" type="passenger"/>
    <trip id="veh51" depart="903.07" departLane="best" from="195401013#3" to="24913519#2" type="passenger"/>
    <trip id="veh52" depart="920.77" departLane="best" from="-4613293" to="4790825#0" type="passenger"/>
    <trip id="veh53" depart="938.48" departLane="best" from="-316746323#2" to="139877314#2" type="passenger"/>
    <trip id="veh54" depart="956.19" departLane="best" from="19002363#1" to="24241762#1" type="passenger"/>
    <trip id="veh56" depart="991.60" departLane="best" from="-560370523" to="25294729#1" type="passenger"/>
    <trip id="veh58" depart="1027.02" departLane="best" from="-387892378" to="493008124" type="passenger"/>
    <trip id="veh62" depart="1097.85" departLane="best" from="534588621#0" to="24990040" type="passenger"/>
    <trip id="veh63" depart="1115.55" departLane="best" from="195401013#2" to="4610362#7" type="passenger"/>
    <trip id="veh68" depart="1204.09" departLane="best" from="183415643" to="-72678523#1" type="passenger"/>
    <trip id="veh69" depart="1221.80" departLane="best" from="-454285423#3" to="51167934#2" type="passenger"/>
    <trip id="veh70" depart="1239.50" departLane="best" from="19002363#3" to="4773465#0" type="passenger"/>
    <trip id="veh71" depart="1257.21" departLane="best" from="23809670#5" to="-234463928#0" type="passenger"/>
    <trip id="veh72" depart="1274.92" departLane="best" from="84960597#3" to="4613295" type="passenger"/>
    <trip id="veh73" depart="1292.62" departLane="best" from="77348147" to="51167934#2" type="passenger"/>
    <trip id="veh74" depart="1310.33" departLane="best" from="202156994#0" to="-454285423#1" type="passenger"/>
    <trip id="veh76" depart="1345.75" departLane="best" from="-4613293" to="4610362#7" type="passenger"/>
    <trip id="veh79" depart="1398.87" departLane="best" from="23809678#1" to="437325047#2" type="passenger"/>
    <trip id="veh80" depart="1416.58" departLane="best" from="-24241797#3" to="-84960597#3" type="passenger"/>
    <trip id="veh81" depart="1434.28" departLane="best" from="77348147" to="24993933#2" type="passenger"/>
    <trip id="veh82" depart="1451.99" departLane="best" from="23809670#2" to="4610355#1" type="passenger"/>
    <trip id="veh83" depart="1469.70" departLane="best" from="-225400578#1" to="25294729#0" type="passenger"/>
    <trip id="veh84" depart="1487.40" departLane="best" from="202157002#4" to="46140376#1" type="passenger"/>
    <trip id="veh85" depart="1505.11" departLane="best" from="-234463928#0" to="-36892597#0" type="passenger"/>
    <trip id="veh87" depart="1540.53" departLane="best" from="-437325047#3" to="-24993933#0" type="passenger"/>
    <trip id="veh90" depart="1593.65" departLane="best" from="-437325047#5" to="195401006" type="passenger"/>
    <trip id="veh91" depart="1611.35" departLane="best" from="30721662#1" to="11103418" type="passenger"/>
    <trip id="veh92" depart="1629.06" departLane="best" from="-51167934#3" to="4610355#2" type="passenger"/>
    <trip id="veh96" depart="1699.89" departLane="best" from="24990168" to="84960595" type="passenger"/>
    <trip id="veh97" depart="1717.60" departLane="best" from="4610362#0" to="11103418" type="passenger"/>
    <trip id="veh98" depart="1735.30" departLane="best" from="30721660#4" to="55741054" type="passenger"/>
    <trip id="veh99" depart="1753.01" departLane="best" from="-24241762#2" to="-24990040" type="passenger"/>
    <trip id="veh101" depart="1788.43" departLane="best" from="25294729#0" to="-534588621#0" type="passenger"/>
    <trip id="veh102" depart="1806.13" departLane="best" from="202156994#0" to="493008124" type="passenger"/>
    <trip id="veh104" depart="1841.55" departLane="best" from="183415643" to="-72678523#0" type="passenger"/>
    <trip id="veh105" depart="1859.25" departLane="best" from="-156364570#1" to="4610362#2" type="passenger"/>
    <trip id="veh106" depart="1876.96" departLane="best" from="25302636#1" to="-534588621#0" type="passenger"/>
    <trip id="veh108" depart="1912.38" departLane="best" from="19002357#0" to="-156364570#4" type="passenger"/>
    <trip id="veh110" depart="1947.79" departLane="best" from="4610362#6" to="25294728" type="passenger"/>
    <trip id="veh111" depart="1965.50" departLane="best" from="-24241790#2" to="-24993933#0" type="passenger"/>
    <trip id="veh112" depart="1983.21" departLane="best" from="-51167934#0" to="493008124" type="passenger"/>
    <trip id="veh113" depart="2000.91" departLane="best" from="454285423#3" to="4773465#0" type="passenger"/>
    <trip id="veh114" depart="2018.62" departLane="best" from="-454285423#3" to="-24241790#0" type="passenger"/>
    <trip id="veh115" depart="2036.33" departLane="best" from="454285423#0" to="4790825#0" type="passenger"/>
    <trip id="veh117" depart="2071.74" departLane="best" from="-24241797#3" to="51167934#2" type="passenger"/>
    <trip id="veh120" depart="2124.86" departLane="best" from="-19002363#1" to="4610351#0" type="passenger"/>
    <trip id="veh121" depart="2142.57" departLane="best" from="-55741054" to="51167934#2" type="passenger"/>
    <trip id="veh122" depart="2160.28" departLane="best" from="4610351#0" to="4773465#1" type="passenger"/>
    <trip id="veh124" depart="2195.69" departLane="best" from="454285423#0" to="-24241797#2" type="passenger"/>
    <trip id="veh126" depart="2231.11" departLane="best" from="-36892597#2" to="4613293" type="passenger"/>
    <trip id="veh128" depart="2266.52" departLane="best" from="-19002363#1" to="-370359204#0" type="passenger"/>
    <trip id="veh129" depart="2284.23" departLane="best" from="77348147" to="-72678523#1" type="passenger"/>
    <trip id="veh131" depart="2319.64" departLane="best" from="534588621#0" to="-24990040" type="passenger"/>
    <trip id="veh135" depart="2390.47" departLane="best" from="24990040" to="23852053#1" type="passenger"/>
    <trip id="veh136" depart="2408.18" departLane="best" from="-156364570#0" to="51167934#2" type="passenger"/>
    <trip id="veh137" depart="2425.89" departLane="best" from="23809670#0" to="437325047#3" type="passenger"/>
    <trip id="veh138" depart="2443.59" departLane="best" from="30721660#4" to="156364556#1" type="passenger"/>
    <trip id="veh139" depart="2461.30" departLane="best" from="-51167934#3" to="4613308#2" type="passenger"/>
    <trip id="veh141" depart="2496.71" departLane="best" from="-51167934#0" to="202157002#1" type="passenger"/>
    <trip id="veh143" depart="2532.13" departLane="best" from="-23813206#2" to="225400578#1" type="passenger"/>
    <trip id="veh145" depart="2567.54" departLane="best" from="-493008124" to="24913519#2" type="passenger"/>
    <trip id="veh146" depart="2585.25" departLane="best" from="-156364570#0" to="-84960597#0" type="passenger"/>
    <trip id="veh147" depart="2602.96" departLane="best" from="19002363#3" to="-454285423#1" type="passenger"/>
    <trip id="veh148" depart="2620.66" departLane="best" from="195401013#2" to="493008124" type="passenger"/>
    <trip id="veh150" depart="2656.08" departLane="best" from="-234463931#1" to="24241762#1" type="passenger"/>
    <trip id="veh151" depart="2673.79" departLane="best" from="4610362#0" to="4610355#2" type="passenger"/>
    <trip id="veh153" depart="2709.20" departLane="best" from="-316746323#0" to="-19002363#1" type="passenger"/>
    <trip id="veh154" depart="2726.91" departLane="best" from="-454285423#1" to="23809670#5" type="passenger"/>
    <trip id="veh156" depart="2762.32" departLane="best" from="171826985#1" to="30721660#5" type="passenger"/>
    <trip id="veh157" depart="2780.03" departLane="best" from="-28016312#0" to="36892597#1" type="passenger"/>
    <trip id="veh158" depart="2797.74" departLane="best" from="202156994#0" to="-48664717#0" type="passenger"/>
    <trip id="veh159" depart="2815.44" departLane="best" from="36892597#2" to="4610362#2" type="passenger"/>
    <trip id="veh161" depart="2850.86" departLane="best" from="-454285423#3" to="4613308#2" type="passenger"/>
    <trip id="veh164" depart="2903.98" departLane="best" from="46140376#1" to="28016312#0" type="passenger"/>
    <trip id="veh166" depart="2939.39" departLane="best" from="4610362#5" to="24913519#2" type="passenger"/>
    <trip id="veh167" depart="2957.10" departLane="best" from="195401013#2" to="-534588621#0" type="passenger"/>
    <trip id="veh168" depart="2974.81" departLane="best" from="437325047#0" to="24241762#1" type="passenger"/>
    <trip id="veh170" depart="3010.22" departLane="best" from="-478396988" to="139877314#2" type="passenger"/>
    <trip id="veh171" depart="3027.93" departLane="best" from="-437325047#0" to="36892597#0" type="passenger"/>
    <trip id="veh173" depart="3063.34" departLane="best" from="171826985#1" to="-437325047#5" type="passenger"/>
    <trip id="veh174" depart="3081.05" departLane="best" from="171826985#5" to="493008124" type="passenger"/>
    <trip id="veh175" depart="3098.76" departLane="best" from="24241797#0" to="36892597#1" type="passenger"/>
    <trip id="veh177" depart="3134.17" departLane="best" from="112128419#2" to="-156364570#3" type="passenger"/>
    <trip id="veh180" depart="3187.29" departLane="best" from="171826985#5" to="4610355#1" type="passenger"/>
    <trip id="veh183" depart="3240.42" departLane="best" from="24993933#0" to="-19002363#10" type="passenger"/>
    <trip id="veh184" depart="3258.12" departLane="best" from="156364570#2" to="24913524#4" type="passenger"/>
    <trip id="veh185" depart="3275.83" departLane="best" from="-19002363#10" to="310357284#0" type="passenger"/>
    <trip id="veh186" depart="3293.54" departLane="best" from="-24241762#2" to="23809670#0" type="passenger"/>
    <trip id="veh189" depart="3346.66" departLane="best" from="370359204#0" to="4613295" type="passenger"/>
    <trip id="veh190" depart="3364.37" departLane="best" from="-454285423#4" to="-23809670#1" type="passenger"/>
    <trip id="veh191" depart="3382.07" departLane="best" from="84960597#3" to="171826984#5" type="passenger"/>
    <trip id="veh192" depart="3399.78" departLane="best" from="28016312#1" to="4610355#2" type="passenger"/>
    <trip id="veh193" depart="3417.49" departLane="best" from="534588621#1" to="-437325047#0" type="passenger"/>
    <trip id="veh194" depart="3435.19" departLane="best" from="-19002363#0" to="-28016312#3" type="passenger"/>
    <trip id="veh196" depart="3470.61" departLane="best" from="23809678#7" to="-454285423#3" type="passenger"/>
    <trip id="veh198" depart="3506.02" departLane="best" from="36892597#1" to="-24990040" type="passenger"/>
    <trip id="veh199" depart="3523.73" departLane="best" from="4610362#1" to="72678523#2" type="passenger"/>
    <trip id="veh200" depart="3541.44" departLane="best" from="-23809670#5" to="-19002363#10" type="passenger"/>
</routes>
