<?xml version="1.0" encoding="UTF-8"?>

<additional xmlns:xsi="http://www.w3.org/2001/XMLSchema-instance" xsi:noNamespaceSchemaLocation="http://sumo.dlr.de/xsd/additional_file.xsd"><poly id="b0" type="building" color="90,102,171" fill="1" layer="-1.00" shape="105,105 295,105 295,295 105,295 105,105"/>
<poly id="b1" type="building" color="90,102,171" fill="1" layer="-1.00" shape="305,105 495,105 495,295 305,295 305,105"/>
<poly id="b2" type="building" color="90,102,171" fill="1" layer="-1.00" shape="505,105 695,105 695,295 505,295 505,105"/>
<poly id="b3" type="building" color="90,102,171" fill="1" layer="-1.00" shape="705,105 895,105 895,295 705,295 705,105"/>
<poly id="b4" type="building" color="90,102,171" fill="1" layer="-1.00" shape="905,105 1095,105 1095,295 905,295 905,105"/>
<poly id="b5" type="building" color="90,102,171" fill="1" layer="-1.00" shape="1105,105 1295,105 1295,295 1105,295 1105,105"/>
<poly id="b6" type="building" color="90,102,171" fill="1" layer="-1.00" shape="1305,105 1495,105 1495,295 1305,295 1305,105"/>
<poly id="b7" type="building" color="90,102,171" fill="1" layer="-1.00" shape="105,305 295,305 295,495 105,495 105,305"/>
<poly id="b8" type="building" color="90,102,171" fill="1" layer="-1.00" shape="305,305 495,305 495,495 305,495 305,305"/>
<poly id="b9" type="building" color="90,102,171" fill="1" layer="-1.00" shape="505,305 695,305 695,495 505,495 505,305"/>
<poly id="b10" type="building" color="90,102,171" fill="1" layer="-1.00" shape="705,305 895,305 895,495 705,495 705,305"/>
<poly id="b11" type="building" color="90,102,171" fill="1" layer="-1.00" shape="905,305 1095,305 1095,495 905,495 905,305"/>
<poly id="b12" type="building" color="90,102,171" fill="1" layer="-1.00" shape="1105,305 1295,305 1295,495 1105,495 1105,305"/>
<poly id="b13" type="building" color="90,102,171" fill="1" layer="-1.00" shape="1305,305 1495,305 1495,495 1305,495 1305,305"/>
<poly id="b14" type="building" color="90,102,171" fill="1" layer="-1.00" shape="105,505 295,505 295,695 105,695 105,505"/>
<poly id="b15" type="building" color="90,102,171" fill="1" layer="-1.00" shape="305,505 495,505 495,695 305,695 305,505"/>
<poly id="b16" type="building" color="90,102,171" fill="1" layer="-1.00" shape="505,505 695,505 695,695 505,695 505,505"/>
<poly id="b17" type="building" color="90,102,171" fill="1" layer="-1.00" shape="705,505 895,505 895,695 705,695 705,505"/>
<poly id="b18" type="building" color="90,102,171" fill="1" layer="-1.00" shape="905,505 1095,505 1095,695 905,695 905,505"/>
<poly id="b19" type="building" color="90,102,171" fill="1" layer="-1.00" shape="1105,505 1295,505 1295,695 1105,695 1105,505"/>
<poly id="b20" type="building" color="90,102,171" fill="1" layer="-1.00" shape="1305,505 1495,505 1495,695 1305,695 1305,505"/>
<poly id="b21" type="building" color="90,102,171" fill="1" layer="-1.00" shape="105,705 295,705 295,895 105,895 105,705"/>
<poly id="b22" type="building" color="90,102,171" fill="1" layer="-1.00" shape="305,705 495,705 495,895 305,895 305,705"/>
<poly id="b23" type="building" color="90,102,171" fill="1" layer="-1.00" shape="505,705 695,705 695,895 505,895 505,705"/>
<poly id="b24" type="building" color="90,102,171" fill="1" layer="-1.00" shape="705,705 895,705 895,895 705,895 705,705"/>
<poly id="b25" type="building" color="90,102,171" fill="1" layer="-1.00" shape="905,705 1095,705 1095,895 905,895 905,705"/>
<poly id="b26" type="building" color="90,102,171" fill="1" layer="-1.00" shape="1105,705 1295,705 1295,895 1105,895 1105,705"/>
<poly id="b27" type="building" color="90,102,171" fill="1" layer="-1.00" shape="1305,705 1495,705 1495,895 1305,895 1305,705"/>
<poly id="b28" type="building" color="90,102,171" fill="1" layer="-1.00" shape="105,905 295,905 295,1095 105,1095 105,905"/>
<poly id="b29" type="building" color="90,102,171" fill="1" layer="-1.00" shape="305,905 495,905 495,1095 305,1095 305,905"/>
<poly id="b30" type="building" color="90,102,171" fill="1" layer="-1.00" shape="505,905 695,905 695,1095 505,1095 505,905"/>
<poly id="b31" type="building" color="90,102,171" fill="1" layer="-1.00" shape="705,905 895,905 895,1095 705,1095 705,905"/>
<poly id="b32" type="building" color="90,102,171" fill="1" layer="-1.00" shape="905,905 1095,905 1095,1095 905,1095 905,905"/>
<poly id="b33" type="building" color="90,102,171" fill="1" layer="-1.00" shape="1105,905 1295,905 1295,1095 1105,1095 1105,905"/>
<poly id="b34" type="building" color="90,102,171" fill="1" layer="-1.00" shape="1305,905 1495,905 1495,1095 1305,1095 1305,905"/>
<poly id="b35" type="building" color="90,102,171" fill="1" layer="-1.00" shape="105,1105 295,1105 295,1295 105,1295 105,1105"/>
<poly id="b36" type="building" color="90,102,171" fill="1" layer="-1.00" shape="305,1105 495,1105 495,1295 305,1295 305,1105"/>
<poly id="b37" type="building" color="90,102,171" fill="1" layer="-1.00" shape="505,1105 695,1105 695,1295 505,1295 505,1105"/>
<poly id="b38" type="building" color="90,102,171" fill="1" layer="-1.00" shape="705,1105 895,1105 895,1295 705,1295 705,1105"/>
<poly id="b39" type="building" color="90,102,171" fill="1" layer="-1.00" shape="905,1105 1095,1105 1095,1295 905,1295 905,1105"/>
<poly id="b40" type="building" color="90,102,171" fill="1" layer="-1.00" shape="1105,1105 1295,1105 1295,1295 1105,1295 1105,1105"/>
<poly id="b41" type="building" color="90,102,171" fill="1" layer="-1.00" shape="1305,1105 1495,1105 1495,1295 1305,1295 1305,1105"/>
<poly id="b42" type="building" color="90,102,171" fill="1" layer="-1.00" shape="105,1305 295,1305 295,1495 105,1495 105,1305"/>
<poly id="b43" type="building" color="90,102,171" fill="1" layer="-1.00" shape="305,1305 495,1305 495,1495 305,1495 305,1305"/>
<poly id="b44" type="building" color="90,102,171" fill="1" layer="-1.00" shape="505,1305 695,1305 695,1495 505,1495 505,1305"/>
<poly id="b45" type="building" color="90,102,171" fill="1" layer="-1.00" shape="705,1305 895,1305 895,1495 705,1495 705,1305"/>
<poly id="b46" type="building" color="90,102,171" fill="1" layer="-1.00" shape="905,1305 1095,1305 1095,1495 905,1495 905,1305"/>
<poly id="b47" type="building" color="90,102,171" fill="1" layer="-1.00" shape="1105,1305 1295,1305 1295,1495 1105,1495 1105,1305"/>
<poly id="b48" type="building" color="90,102,171" fill="1" layer="-1.00" shape="1305,1305 1495,1305 1495,1495 1305,1495 1305,1305"/>
</additional>