<?xml version="1.0" encoding="UTF-8"?>

<!-- generated on Sat Dec  8 18:22:01 2018 by SUMO netconvert Version 0.30.0
<?xml version="1.0" encoding="UTF-8"?>

<configuration xmlns:xsi="http://www.w3.org/2001/XMLSchema-instance" xsi:noNamespaceSchemaLocation="http://sumo.dlr.de/xsd/netconvertConfiguration.xsd">

    <input>
        <type-files value="/home/jordan/Downloads/sumo-0.30.0/data/typemap/osmNetconvert.typ.xml"/>
        <osm-files value="osm_bbox.osm.xml"/>
    </input>

    <output>
        <output-file value="/home/jordan/Downloads/sumo-0.30.0/tools/2018-12-08-18-22-01/osm.net.xml"/>
        <output.street-names value="true"/>
        <output.original-names value="true"/>
    </output>

    <projection>
        <proj.utm value="true"/>
    </projection>

    <tls_building>
        <tls.discard-simple value="true"/>
        <tls.join value="true"/>
        <tls.guess-signals value="true"/>
    </tls_building>

    <ramp_guessing>
        <ramps.guess value="true"/>
    </ramp_guessing>

    <processing>
        <geometry.remove value="true"/>
        <roundabouts.guess value="true"/>
        <junctions.join value="true"/>
        <junctions.corner-detail value="5"/>
    </processing>

    <report>
        <verbose value="true"/>
    </report>

</configuration>
-->

<net version="0.27" junctionCornerDetail="5" xmlns:xsi="http://www.w3.org/2001/XMLSchema-instance" xsi:noNamespaceSchemaLocation="http://sumo.dlr.de/xsd/net_file.xsd">

    <location netOffset="-297869.43,-4638469.51" convBoundary="0.00,0.00,1353.76,1184.06" origBoundary="12.564047,41.872664,12.580385,41.883181" projParameter="+proj=utm +zone=33 +ellps=WGS84 +datum=WGS84 +units=m +no_defs"/>

    <type id="highway.bridleway" priority="1" numLanes="1" speed="2.78" allow="pedestrian" oneway="1" width="2.00"/>
    <type id="highway.bus_guideway" priority="1" numLanes="1" speed="8.33" allow="bus" oneway="1"/>
    <type id="highway.cycleway" priority="1" numLanes="1" speed="5.56" allow="bicycle" oneway="0" width="1.00"/>
    <type id="highway.footway" priority="1" numLanes="1" speed="2.78" allow="pedestrian" oneway="1" width="2.00"/>
    <type id="highway.ford" priority="1" numLanes="1" speed="2.78" allow="army" oneway="0"/>
    <type id="highway.living_street" priority="3" numLanes="1" speed="2.78" disallow="tram rail_urban rail rail_electric ship" oneway="0"/>
    <type id="highway.motorway" priority="13" numLanes="2" speed="44.44" allow="private emergency authority army vip passenger hov taxi bus coach delivery truck trailer motorcycle evehicle custom1 custom2" oneway="1"/>
    <type id="highway.motorway_link" priority="12" numLanes="1" speed="22.22" allow="private emergency authority army vip passenger hov taxi bus coach delivery truck trailer motorcycle evehicle custom1 custom2" oneway="1"/>
    <type id="highway.path" priority="1" numLanes="1" speed="2.78" allow="bicycle pedestrian" oneway="1" width="2.00"/>
    <type id="highway.pedestrian" priority="1" numLanes="1" speed="2.78" allow="pedestrian" oneway="1" width="2.00"/>
    <type id="highway.primary" priority="9" numLanes="2" speed="27.78" disallow="tram rail_urban rail rail_electric ship" oneway="0"/>
    <type id="highway.primary_link" priority="8" numLanes="1" speed="22.22" disallow="tram rail_urban rail rail_electric ship" oneway="0"/>
    <type id="highway.raceway" priority="14" numLanes="2" speed="83.33" allow="vip" oneway="0"/>
    <type id="highway.residential" priority="4" numLanes="1" speed="13.89" disallow="tram rail_urban rail rail_electric ship" oneway="0"/>
    <type id="highway.secondary" priority="7" numLanes="2" speed="27.78" disallow="tram rail_urban rail rail_electric ship" oneway="0"/>
    <type id="highway.secondary_link" priority="6" numLanes="1" speed="22.22" disallow="tram rail_urban rail rail_electric ship" oneway="0"/>
    <type id="highway.service" priority="2" numLanes="1" speed="5.56" allow="delivery bicycle pedestrian" oneway="0"/>
    <type id="highway.services" priority="1" numLanes="1" speed="8.33" disallow="tram rail_urban rail rail_electric ship" oneway="0"/>
    <type id="highway.stairs" priority="1" numLanes="1" speed="1.39" allow="pedestrian" oneway="1" width="2.00"/>
    <type id="highway.step" priority="1" numLanes="1" speed="1.39" allow="pedestrian" oneway="1" width="2.00"/>
    <type id="highway.steps" priority="1" numLanes="1" speed="1.39" allow="pedestrian" oneway="1" width="2.00"/>
    <type id="highway.tertiary" priority="6" numLanes="1" speed="22.22" disallow="tram rail_urban rail rail_electric ship" oneway="0"/>
    <type id="highway.tertiary_link" priority="5" numLanes="1" speed="22.22" disallow="tram rail_urban rail rail_electric ship" oneway="0"/>
    <type id="highway.track" priority="1" numLanes="1" speed="5.56" disallow="tram rail_urban rail rail_electric ship" oneway="0"/>
    <type id="highway.trunk" priority="11" numLanes="2" speed="27.78" disallow="tram rail_urban rail rail_electric bicycle pedestrian ship" oneway="0"/>
    <type id="highway.trunk_link" priority="10" numLanes="1" speed="22.22" disallow="tram rail_urban rail rail_electric bicycle pedestrian ship" oneway="0"/>
    <type id="highway.unclassified" priority="5" numLanes="1" speed="13.89" disallow="tram rail_urban rail rail_electric ship" oneway="0"/>
    <type id="highway.unsurfaced" priority="1" numLanes="1" speed="8.33" disallow="tram rail_urban rail rail_electric ship" oneway="0"/>
    <type id="railway.light_rail" priority="15" numLanes="1" speed="27.78" allow="rail_urban" oneway="1"/>
    <type id="railway.preserved" priority="15" numLanes="1" speed="27.78" allow="rail" oneway="1"/>
    <type id="railway.rail" priority="15" numLanes="1" speed="83.33" allow="rail rail_electric" oneway="1"/>
    <type id="railway.subway" priority="15" numLanes="1" speed="27.78" allow="rail_urban" oneway="1"/>
    <type id="railway.tram" priority="15" numLanes="1" speed="13.89" allow="tram" oneway="1"/>

    <edge id=":1150135656_0" function="internal">
        <lane id=":1150135656_0_0" index="0" disallow="tram rail_urban rail rail_electric ship" speed="13.89" length="1.54" shape="1107.25,426.60 1105.97,426.09 1105.85,425.97"/>
    </edge>
    <edge id=":1150135656_2" function="internal">
        <lane id=":1150135656_2_0" index="0" speed="13.89" length="3.46" shape="1105.85,425.97 1105.17,425.30 1104.83,424.22 1104.95,422.86"/>
    </edge>
    <edge id=":1150135656_1" function="internal">
        <lane id=":1150135656_1_0" index="0" disallow="tram rail_urban rail rail_electric ship" speed="13.89" length="6.20" shape="1103.51,428.89 1104.95,422.86"/>
    </edge>
    <edge id=":1150135667_0" function="internal">
        <lane id=":1150135667_0_0" index="0" disallow="tram rail_urban rail rail_electric ship" speed="13.89" length="6.04" shape="1220.80,451.21 1219.36,457.07"/>
    </edge>
    <edge id=":1150135667_1" function="internal">
        <lane id=":1150135667_1_0" index="0" disallow="tram rail_urban rail rail_electric ship" speed="13.89" length="2.92" shape="1220.80,451.21 1220.08,452.39 1218.68,453.01"/>
    </edge>
    <edge id=":1150135667_2" function="internal">
        <lane id=":1150135667_2_0" index="0" disallow="tram rail_urban rail rail_electric ship" speed="13.89" length="2.41" shape="1220.80,451.21 1219.69,452.19 1218.79,452.38"/>
    </edge>
    <edge id=":1150135667_6" function="internal">
        <lane id=":1150135667_6_0" index="0" speed="13.89" length="4.88" shape="1218.68,453.01 1216.60,453.09 1213.84,452.61"/>
    </edge>
    <edge id=":1150135667_7" function="internal">
        <lane id=":1150135667_7_0" index="0" speed="13.89" length="2.41" shape="1218.79,452.38 1218.09,451.77 1217.61,450.37"/>
    </edge>
    <edge id=":1150135667_3" function="internal">
        <lane id=":1150135667_3_0" index="0" disallow="tram rail_urban rail rail_electric ship" speed="13.89" length="4.98" shape="1216.14,456.33 1216.26,454.98 1215.91,453.90 1215.11,453.11 1213.84,452.61"/>
    </edge>
    <edge id=":1150135667_4" function="internal">
        <lane id=":1150135667_4_0" index="0" disallow="tram rail_urban rail rail_electric ship" speed="13.89" length="6.15" shape="1216.14,456.33 1217.61,450.37"/>
    </edge>
    <edge id=":1150135667_5" function="internal">
        <lane id=":1150135667_5_0" index="0" disallow="tram rail_urban rail rail_electric ship" speed="13.89" length="2.41" shape="1216.14,456.33 1217.22,455.31 1218.12,455.09"/>
    </edge>
    <edge id=":1150135667_8" function="internal">
        <lane id=":1150135667_8_0" index="0" speed="13.89" length="2.41" shape="1218.12,455.09 1218.83,455.68 1219.36,457.07"/>
    </edge>
    <edge id=":1424618359_0" function="internal">
        <lane id=":1424618359_0_0" index="0" allow="delivery bicycle pedestrian" speed="9.72" length="5.00" shape="1202.34,529.99 1202.21,531.36 1202.55,532.43 1203.36,533.23 1204.63,533.74"/>
    </edge>
    <edge id=":1424618359_1" function="internal">
        <lane id=":1424618359_1_0" index="0" disallow="tram rail_urban rail rail_electric ship" speed="13.89" length="6.20" shape="1202.34,529.99 1200.89,536.02"/>
    </edge>
    <edge id=":1424618359_2" function="internal">
        <lane id=":1424618359_2_0" index="0" disallow="tram rail_urban rail rail_electric ship" speed="13.89" length="2.41" shape="1202.34,529.99 1201.25,531.00 1200.35,531.21"/>
    </edge>
    <edge id=":1424618359_6" function="internal">
        <lane id=":1424618359_6_0" index="0" speed="13.89" length="2.41" shape="1200.35,531.21 1199.65,530.61 1199.14,529.22"/>
    </edge>
    <edge id=":1424618359_3" function="internal">
        <lane id=":1424618359_3_0" index="0" disallow="tram rail_urban rail rail_electric ship" speed="13.89" length="6.20" shape="1197.68,535.24 1199.14,529.22"/>
    </edge>
    <edge id=":1424618359_4" function="internal">
        <lane id=":1424618359_4_0" index="0" allow="delivery bicycle pedestrian" speed="9.72" length="3.06" shape="1197.68,535.24 1198.39,534.02 1199.78,533.36 1199.89,533.35"/>
    </edge>
    <edge id=":1424618359_5" function="internal">
        <lane id=":1424618359_5_0" index="0" disallow="tram rail_urban rail rail_electric ship" speed="13.89" length="2.41" shape="1197.68,535.24 1198.77,534.24 1199.67,534.03"/>
    </edge>
    <edge id=":1424618359_7" function="internal">
        <lane id=":1424618359_7_0" index="0" speed="9.72" length="4.79" shape="1199.89,533.35 1201.86,533.26 1204.63,533.74"/>
    </edge>
    <edge id=":1424618359_8" function="internal">
        <lane id=":1424618359_8_0" index="0" speed="13.89" length="2.41" shape="1199.67,534.03 1200.38,534.62 1200.89,536.02"/>
    </edge>
    <edge id=":1424618363_0" function="internal">
        <lane id=":1424618363_0_0" index="0" disallow="tram rail_urban rail rail_electric ship" speed="9.72" length="5.05" shape="1192.30,585.01 1190.90,584.92 1189.80,585.28 1188.99,586.08 1188.49,587.34"/>
    </edge>
    <edge id=":1424618363_1" function="internal">
        <lane id=":1424618363_1_0" index="0" disallow="tram rail_urban rail rail_electric ship" speed="9.72" length="7.95" shape="1192.30,585.01 1189.58,584.25 1187.74,583.25 1186.80,582.01 1186.74,580.54"/>
    </edge>
    <edge id=":1424618363_2" function="internal">
        <lane id=":1424618363_2_0" index="0" disallow="tram rail_urban rail rail_electric ship" speed="13.89" length="6.20" shape="1189.95,581.31 1188.49,587.34"/>
    </edge>
    <edge id=":1424618363_3" function="internal">
        <lane id=":1424618363_3_0" index="0" disallow="tram rail_urban rail rail_electric ship" speed="13.89" length="2.41" shape="1189.95,581.31 1188.85,582.32 1187.95,582.53"/>
    </edge>
    <edge id=":1424618363_6" function="internal">
        <lane id=":1424618363_6_0" index="0" speed="13.89" length="2.41" shape="1187.95,582.53 1187.25,581.93 1186.74,580.54"/>
    </edge>
    <edge id=":1424618363_4" function="internal">
        <lane id=":1424618363_4_0" index="0" disallow="tram rail_urban rail rail_electric ship" speed="13.89" length="6.20" shape="1185.28,586.56 1186.74,580.54"/>
    </edge>
    <edge id=":1424618363_5" function="internal">
        <lane id=":1424618363_5_0" index="0" disallow="tram rail_urban rail rail_electric ship" speed="13.89" length="2.41" shape="1185.28,586.56 1186.37,585.56 1187.27,585.35"/>
    </edge>
    <edge id=":1424618363_7" function="internal">
        <lane id=":1424618363_7_0" index="0" speed="13.89" length="2.41" shape="1187.27,585.35 1187.98,585.94 1188.49,587.34"/>
    </edge>
    <edge id=":1432268085_0" function="internal">
        <lane id=":1432268085_0_0" index="0" disallow="tram rail_urban rail rail_electric ship" speed="13.89" length="3.92" shape="583.50,353.17 585.61,356.98"/>
        <lane id=":1432268085_0_1" index="1" disallow="tram rail_urban rail rail_electric ship" speed="13.89" length="3.92" shape="580.61,354.76 582.30,357.81"/>
    </edge>
    <edge id=":1432268085_2" function="internal">
        <lane id=":1432268085_2_0" index="0" allow="delivery bicycle pedestrian" speed="9.72" length="3.41" shape="580.61,354.76 581.09,355.65 581.38,356.28 581.59,356.94 581.85,357.92"/>
    </edge>
    <edge id=":1432268086_0" function="internal">
        <lane id=":1432268086_0_0" index="0" disallow="tram rail_urban rail rail_electric ship" speed="13.89" length="18.78" shape="557.75,382.44 549.07,365.69"/>
        <lane id=":1432268086_0_1" index="1" disallow="tram rail_urban rail rail_electric ship" speed="13.89" length="18.78" shape="560.68,380.92 552.07,364.32"/>
    </edge>
    <edge id=":1432268086_2" function="internal">
        <lane id=":1432268086_2_0" index="0" disallow="tram rail_urban rail rail_electric ship" speed="9.72" length="18.18" shape="563.15,378.63 560.85,375.75 558.04,372.96 555.02,369.43 552.07,364.32"/>
    </edge>
    <edge id=":1432268115_0" function="internal">
        <lane id=":1432268115_0_0" index="0" disallow="tram rail_urban rail rail_electric ship" speed="13.89" length="19.59" shape="639.06,453.33 648.63,470.44"/>
        <lane id=":1432268115_0_1" index="1" disallow="tram rail_urban rail rail_electric ship" speed="13.89" length="19.59" shape="636.17,454.94 645.73,472.02"/>
    </edge>
    <edge id=":1432268115_2" function="internal">
        <lane id=":1432268115_2_0" index="0" disallow="tram rail_urban rail rail_electric ship" speed="9.72" length="19.19" shape="633.72,457.13 635.99,460.11 638.93,463.05 642.27,466.76 645.73,472.02"/>
    </edge>
    <edge id=":1432268119_0" function="internal">
        <lane id=":1432268119_0_0" index="0" disallow="tram rail_urban rail rail_electric ship" speed="13.89" length="24.87" shape="618.96,488.55 605.44,467.77"/>
        <lane id=":1432268119_0_1" index="1" disallow="tram rail_urban rail rail_electric ship" speed="13.89" length="24.87" shape="621.83,486.93 608.23,466.02"/>
    </edge>
    <edge id=":1432268119_2" function="internal">
        <lane id=":1432268119_2_0" index="0" allow="delivery bicycle pedestrian" speed="9.72" length="24.79" shape="621.83,486.93 611.20,464.54"/>
    </edge>
    <edge id=":2077013403_0" function="internal">
        <lane id=":2077013403_0_0" index="0" disallow="tram rail_urban rail rail_electric ship" speed="13.89" length="6.28" shape="705.39,693.20 704.81,692.04 703.75,691.21 702.21,690.72 700.20,690.55"/>
    </edge>
    <edge id=":2077013403_1" function="internal">
        <lane id=":2077013403_1_0" index="0" disallow="tram rail_urban rail rail_electric ship" speed="13.89" length="9.77" shape="705.39,693.20 702.85,683.78"/>
        <lane id=":2077013403_1_1" index="1" disallow="tram rail_urban rail rail_electric ship" speed="13.89" length="9.77" shape="708.59,692.36 706.03,682.90"/>
    </edge>
    <edge id=":2077013403_3" function="internal">
        <lane id=":2077013403_3_0" index="0" disallow="tram rail_urban rail rail_electric ship" speed="13.89" length="5.36" shape="700.20,687.25 701.72,687.03 702.67,686.38 703.04,685.30 702.85,683.78"/>
    </edge>
    <edge id=":2077013403_4" function="internal">
        <lane id=":2077013403_4_0" index="0" disallow="tram rail_urban rail rail_electric ship" speed="13.89" length="4.82" shape="700.20,687.25 701.44,688.08 701.85,688.90 701.44,689.73 700.20,690.55"/>
    </edge>
    <edge id=":220869048_0" function="internal">
        <lane id=":220869048_0_0" index="0" disallow="tram rail_urban rail rail_electric ship" speed="13.89" length="6.48" shape="667.12,504.44 670.21,510.15"/>
        <lane id=":220869048_0_1" index="1" disallow="tram rail_urban rail rail_electric ship" speed="13.89" length="6.48" shape="664.22,506.01 667.29,511.70"/>
    </edge>
    <edge id=":220869048_2" function="internal">
        <lane id=":220869048_2_0" index="0" disallow="tram rail_urban rail rail_electric ship" speed="13.89" length="5.73" shape="662.23,509.86 663.99,509.80 665.42,510.09 666.52,510.72 667.29,511.70"/>
    </edge>
    <edge id=":220869055_0" function="internal">
        <lane id=":220869055_0_0" index="0" disallow="tram rail_urban rail rail_electric ship" speed="13.89" length="23.37" shape="713.02,593.81 715.24,598.35 717.92,604.42 720.51,610.52 722.49,615.17"/>
    </edge>
    <edge id=":220869055_1" function="internal">
        <lane id=":220869055_1_0" index="0" disallow="tram rail_urban rail rail_electric ship" speed="13.89" length="23.36" shape="713.02,593.81 714.84,598.49 716.58,604.88 718.09,611.35 719.25,616.29"/>
    </edge>
    <edge id=":220869354_0" function="internal">
        <lane id=":220869354_0_0" index="0" disallow="tram rail_urban rail rail_electric ship" speed="13.89" length="8.30" shape="690.45,644.98 689.44,642.90 688.24,641.79 686.67,640.98 684.52,639.81"/>
        <lane id=":220869354_0_1" index="1" disallow="tram rail_urban rail rail_electric ship" speed="13.89" length="8.30" shape="693.56,643.88 692.59,641.65 691.51,640.33 690.04,639.32 687.89,638.03"/>
    </edge>
    <edge id=":220869354_2" function="internal">
        <lane id=":220869354_2_0" index="0" disallow="tram rail_urban rail rail_electric ship" speed="13.89" length="7.83" shape="693.56,643.88 692.82,641.69 692.46,640.13 692.39,638.53 692.54,636.22"/>
    </edge>
    <edge id=":220869874_0" function="internal">
        <lane id=":220869874_0_0" index="0" disallow="tram rail_urban rail rail_electric ship" speed="13.89" length="11.33" shape="566.25,321.82 571.71,331.75"/>
        <lane id=":220869874_0_1" index="1" disallow="tram rail_urban rail rail_electric ship" speed="13.89" length="11.33" shape="563.36,323.41 568.82,333.34"/>
    </edge>
    <edge id=":220869874_2" function="internal">
        <lane id=":220869874_2_0" index="0" disallow="tram rail_urban rail rail_electric ship" speed="13.89" length="10.71" shape="560.93,326.81 564.95,327.70 568.09,328.83 570.34,330.17 571.71,331.75"/>
        <lane id=":220869874_2_1" index="1" disallow="tram rail_urban rail rail_electric ship" speed="13.89" length="10.71" shape="560.36,330.06 563.65,330.75 566.16,331.52 567.88,332.39 568.82,333.34"/>
    </edge>
    <edge id=":220869888_0" function="internal">
        <lane id=":220869888_0_0" index="0" disallow="tram rail_urban rail rail_electric ship" speed="13.89" length="10.80" shape="541.31,348.66 536.31,339.24"/>
        <lane id=":220869888_0_1" index="1" disallow="tram rail_urban rail rail_electric ship" speed="13.89" length="10.80" shape="544.31,347.29 539.19,337.63"/>
    </edge>
    <edge id=":220869888_2" function="internal">
        <lane id=":220869888_2_0" index="0" disallow="tram rail_urban rail rail_electric ship" speed="13.89" length="9.48" shape="544.31,347.29 543.23,344.44 542.72,341.85 542.78,339.54 543.41,337.48"/>
        <lane id=":220869888_2_1" index="1" disallow="tram rail_urban rail rail_electric ship" speed="13.89" length="9.48" shape="544.31,347.29 544.09,346.00 544.36,344.17 545.13,341.80 546.39,338.90"/>
    </edge>
    <edge id=":220869896_0" function="internal">
        <lane id=":220869896_0_0" index="0" disallow="tram rail_urban rail rail_electric ship" speed="13.89" length="6.63" shape="631.32,510.45 628.09,504.67"/>
        <lane id=":220869896_0_1" index="1" disallow="tram rail_urban rail rail_electric ship" speed="13.89" length="6.63" shape="634.21,508.84 630.96,503.05"/>
    </edge>
    <edge id=":220869896_2" function="internal">
        <lane id=":220869896_2_0" index="0" disallow="tram rail_urban rail rail_electric ship" speed="13.89" length="6.04" shape="636.36,505.11 634.45,505.00 632.91,504.62 631.75,503.97 630.96,503.05"/>
    </edge>
    <edge id=":220869909_0" function="internal">
        <lane id=":220869909_0_0" index="0" disallow="tram rail_urban rail rail_electric ship" speed="13.89" length="7.02" shape="656.52,484.94 659.88,491.11"/>
        <lane id=":220869909_0_1" index="1" disallow="tram rail_urban rail rail_electric ship" speed="13.89" length="7.02" shape="653.63,486.52 656.98,492.69"/>
    </edge>
    <edge id=":220869909_2" function="internal">
        <lane id=":220869909_2_0" index="0" disallow="tram rail_urban rail rail_electric ship" speed="13.89" length="6.57" shape="653.63,486.52 653.98,487.67 653.96,489.11 653.56,490.83 652.78,492.84"/>
    </edge>
    <edge id=":220869921_0" function="internal">
        <lane id=":220869921_0_0" index="0" disallow="tram rail_urban rail rail_electric ship" speed="13.89" length="6.49" shape="639.65,525.40 636.51,519.74"/>
        <lane id=":220869921_0_1" index="1" disallow="tram rail_urban rail rail_electric ship" speed="13.89" length="6.49" shape="642.55,523.84 639.40,518.13"/>
    </edge>
    <edge id=":220869921_2" function="internal">
        <lane id=":220869921_2_0" index="0" disallow="tram rail_urban rail rail_electric ship" speed="13.89" length="5.88" shape="642.55,523.84 642.18,522.67 642.25,521.37 642.75,519.93 643.70,518.36"/>
    </edge>
    <edge id=":2319059595_0" function="internal">
        <lane id=":2319059595_0_0" index="0" disallow="tram rail_urban rail rail_electric ship" speed="13.89" length="3.67" shape="397.24,568.40 400.82,569.15"/>
    </edge>
    <edge id=":2319059596_0" function="internal">
        <lane id=":2319059596_0_0" index="0" disallow="tram rail_urban rail rail_electric ship" speed="13.89" length="5.88" shape="406.85,570.34 412.62,571.42"/>
    </edge>
    <edge id=":2319059596_1" function="internal">
        <lane id=":2319059596_1_0" index="0" disallow="tram rail_urban rail rail_electric ship" speed="13.89" length="5.21" shape="406.85,570.34 407.78,570.74 408.54,571.56 409.12,572.80 409.52,574.46"/>
    </edge>
    <edge id=":2319059598_0" function="internal">
        <lane id=":2319059598_0_0" index="0" disallow="tram rail_urban rail rail_electric ship" speed="13.89" length="5.00" shape="443.05,577.14 447.96,578.07"/>
    </edge>
    <edge id=":2319059601_0" function="internal">
        <lane id=":2319059601_0_0" index="0" disallow="tram rail_urban rail rail_electric ship" speed="13.89" length="5.00" shape="399.10,584.58 394.19,583.66"/>
    </edge>
    <edge id=":2319059601_1" function="internal">
        <lane id=":2319059601_1_0" index="0" disallow="tram rail_urban rail rail_electric ship" speed="13.89" length="2.41" shape="399.10,584.58 398.04,583.54 397.79,582.65"/>
    </edge>
    <edge id=":2319059601_4" function="internal">
        <lane id=":2319059601_4_0" index="0" speed="13.89" length="2.41" shape="397.79,582.65 398.34,581.92 399.71,581.34"/>
    </edge>
    <edge id=":2319059601_2" function="internal">
        <lane id=":2319059601_2_0" index="0" disallow="tram rail_urban rail rail_electric ship" speed="13.89" length="5.00" shape="394.80,580.42 399.71,581.34"/>
    </edge>
    <edge id=":2319059601_3" function="internal">
        <lane id=":2319059601_3_0" index="0" disallow="tram rail_urban rail rail_electric ship" speed="13.89" length="2.41" shape="394.80,580.42 395.86,581.45 396.12,582.34"/>
    </edge>
    <edge id=":2319059601_5" function="internal">
        <lane id=":2319059601_5_0" index="0" speed="13.89" length="2.41" shape="396.12,582.34 395.56,583.08 394.19,583.66"/>
    </edge>
    <edge id=":2319059602_0" function="internal">
        <lane id=":2319059602_0_0" index="0" disallow="tram rail_urban rail rail_electric ship" speed="13.89" length="4.99" shape="445.28,591.44 440.38,590.52"/>
    </edge>
    <edge id=":2319073391_0" function="internal">
        <lane id=":2319073391_0_0" index="0" disallow="tram rail_urban rail rail_electric ship" speed="13.89" length="5.00" shape="981.86,684.04 976.95,683.08"/>
    </edge>
    <edge id=":2319073391_1" function="internal">
        <lane id=":2319073391_1_0" index="0" disallow="tram rail_urban rail rail_electric ship" speed="13.89" length="2.41" shape="981.86,684.04 980.80,682.99 980.56,682.11"/>
    </edge>
    <edge id=":2319073391_4" function="internal">
        <lane id=":2319073391_4_0" index="0" speed="13.89" length="2.41" shape="980.56,682.11 981.12,681.38 982.50,680.81"/>
    </edge>
    <edge id=":2319073391_2" function="internal">
        <lane id=":2319073391_2_0" index="0" disallow="tram rail_urban rail rail_electric ship" speed="13.89" length="5.00" shape="977.59,679.84 982.50,680.81"/>
    </edge>
    <edge id=":2319073391_3" function="internal">
        <lane id=":2319073391_3_0" index="0" disallow="tram rail_urban rail rail_electric ship" speed="13.89" length="2.41" shape="977.59,679.84 978.64,680.89 978.89,681.78"/>
    </edge>
    <edge id=":2319073391_5" function="internal">
        <lane id=":2319073391_5_0" index="0" speed="13.89" length="2.41" shape="978.89,681.78 978.32,682.51 976.95,683.08"/>
    </edge>
    <edge id=":2319073392_0" function="internal">
        <lane id=":2319073392_0_0" index="0" disallow="tram rail_urban rail rail_electric ship" speed="13.89" length="5.00" shape="1027.78,693.12 1022.88,692.15"/>
    </edge>
    <edge id=":2319073392_1" function="internal">
        <lane id=":2319073392_1_0" index="0" disallow="tram rail_urban rail rail_electric ship" speed="13.89" length="2.41" shape="1027.78,693.12 1026.73,692.07 1026.48,691.18"/>
    </edge>
    <edge id=":2319073392_4" function="internal">
        <lane id=":2319073392_4_0" index="0" speed="13.89" length="2.41" shape="1026.48,691.18 1027.05,690.45 1028.42,689.88"/>
    </edge>
    <edge id=":2319073392_2" function="internal">
        <lane id=":2319073392_2_0" index="0" disallow="tram rail_urban rail rail_electric ship" speed="13.89" length="5.00" shape="1023.52,688.91 1028.42,689.88"/>
    </edge>
    <edge id=":2319073392_3" function="internal">
        <lane id=":2319073392_3_0" index="0" disallow="tram rail_urban rail rail_electric ship" speed="13.89" length="2.41" shape="1023.52,688.91 1024.57,689.96 1024.81,690.85"/>
    </edge>
    <edge id=":2319073392_5" function="internal">
        <lane id=":2319073392_5_0" index="0" speed="13.89" length="2.41" shape="1024.81,690.85 1024.25,691.58 1022.88,692.15"/>
    </edge>
    <edge id=":2319073393_0" function="internal">
        <lane id=":2319073393_0_0" index="0" disallow="tram rail_urban rail rail_electric ship" speed="13.89" length="5.00" shape="978.40,700.46 973.50,699.47"/>
    </edge>
    <edge id=":2319073393_1" function="internal">
        <lane id=":2319073393_1_0" index="0" disallow="tram rail_urban rail rail_electric ship" speed="13.89" length="2.41" shape="978.40,700.46 977.36,699.41 977.11,698.52"/>
    </edge>
    <edge id=":2319073393_4" function="internal">
        <lane id=":2319073393_4_0" index="0" speed="13.89" length="2.41" shape="977.11,698.52 977.68,697.79 979.06,697.23"/>
    </edge>
    <edge id=":2319073393_2" function="internal">
        <lane id=":2319073393_2_0" index="0" disallow="tram rail_urban rail rail_electric ship" speed="13.89" length="5.00" shape="974.16,696.24 979.06,697.23"/>
    </edge>
    <edge id=":2319073393_3" function="internal">
        <lane id=":2319073393_3_0" index="0" disallow="tram rail_urban rail rail_electric ship" speed="13.89" length="2.41" shape="974.16,696.24 975.21,697.29 975.45,698.18"/>
    </edge>
    <edge id=":2319073393_5" function="internal">
        <lane id=":2319073393_5_0" index="0" speed="13.89" length="2.41" shape="975.45,698.18 974.88,698.91 973.50,699.47"/>
    </edge>
    <edge id=":2319073394_0" function="internal">
        <lane id=":2319073394_0_0" index="0" disallow="tram rail_urban rail rail_electric ship" speed="13.89" length="5.00" shape="1024.20,709.73 1019.30,708.74"/>
    </edge>
    <edge id=":2319073394_1" function="internal">
        <lane id=":2319073394_1_0" index="0" disallow="tram rail_urban rail rail_electric ship" speed="13.89" length="2.41" shape="1024.20,709.73 1023.15,708.68 1022.91,707.79"/>
    </edge>
    <edge id=":2319073394_4" function="internal">
        <lane id=":2319073394_4_0" index="0" speed="13.89" length="2.41" shape="1022.91,707.79 1023.48,707.06 1024.86,706.50"/>
    </edge>
    <edge id=":2319073394_2" function="internal">
        <lane id=":2319073394_2_0" index="0" disallow="tram rail_urban rail rail_electric ship" speed="13.89" length="5.00" shape="1019.96,705.51 1024.86,706.50"/>
    </edge>
    <edge id=":2319073394_3" function="internal">
        <lane id=":2319073394_3_0" index="0" disallow="tram rail_urban rail rail_electric ship" speed="13.89" length="2.41" shape="1019.96,705.51 1021.01,706.56 1021.25,707.45"/>
    </edge>
    <edge id=":2319073394_5" function="internal">
        <lane id=":2319073394_5_0" index="0" speed="13.89" length="2.41" shape="1021.25,707.45 1020.68,708.18 1019.30,708.74"/>
    </edge>
    <edge id=":2334908734_0" function="internal">
        <lane id=":2334908734_0_0" index="0" disallow="tram rail_urban rail rail_electric ship" speed="13.89" length="5.00" shape="617.70,415.07 620.13,419.44"/>
        <lane id=":2334908734_0_1" index="1" disallow="tram rail_urban rail rail_electric ship" speed="13.89" length="5.00" shape="614.82,416.68 617.25,421.05"/>
    </edge>
    <edge id=":2334908735_0" function="internal">