<?xml version="1.0"?>
<!-- generated on 2018-12-08 18:22:02.166299 by $Id: route2trips.py 23614 2017-03-22 13:02:46Z luecken $ via randomTrips.py
  options: 
-->
<routes xmlns:xsi="http://www.w3.org/2001/XMLSchema-instance" xsi:noNamespaceSchemaLocation="http://sumo.dlr.de/xsd/routes_file.xsd">
    <vType id="passenger" vClass="passenger">
    </vType>
    <trip id="veh1" depart="21.40" departLane="best" from="322535294#0" to="27458947#2" type="passenger"/>
    <trip id="veh3" depart="64.19" departLane="best" from="190525652#3" to="-122173830#2" type="passenger"/>
    <trip id="veh4" depart="85.58" departLane="best" from="-35672873" to="27207922#3" type="passenger"/>
    <trip id="veh6" depart="128.37" departLane="best" from="35672875" to="-122173830#0" type="passenger"/>
    <trip id="veh7" depart="149.77" departLane="best" from="35672875" to="27458950#2" type="passenger"/>
    <trip id="veh8" depart="171.16" departLane="best" from="129889566#0" to="-56672602#0" type="passenger"/>
    <trip id="veh9" depart="192.56" departLane="best" from="95670247#0" to="129889569#1" type="passenger"/>
    <trip id="veh11" depart="235.35" departLane="best" from="35672875" to="27458953#0" type="passenger"/>
    <trip id="veh16" depart="342.32" departLane="best" from="-197462220" to="129040735" type="passenger"/>
    <trip id="veh20" depart="427.90" departLane="best" from="122173830#0" to="69922466" type="passenger"/>
    <trip id="veh23" depart="492.09" departLane="best" from="95670260#0" to="27458100#2" type="passenger"/>
    <trip id="veh24" depart="513.48" departLane="best" from="27421964#0" to="27458947#4" type="passenger"/>
    <trip id="veh25" depart="534.88" departLane="best" from="56672596#1" to="27458956" type="passenger"/>
    <trip id="veh28" depart="599.06" departLane="best" from="58721773" to="222960088#1" type="passenger"/>
    <trip id="veh29" depart="620.46" departLane="best" from="122173830#0" to="129040735" type="passenger"/>
    <trip id="veh30" depart="641.85" departLane="best" from="27421964#0" to="129040739#1" type="passenger"/>
    <trip id="veh31" depart="663.25" departLane="best" from="27458046#0" to="56672596#1" type="passenger"/>
    <trip id="veh32" depart="684.65" departLane="best" from="190525652#0" to="122173854#0" type="passenger"/>
    <trip id="veh34" depart="727.44" departLane="best" from="-27421938" to="-129040739#0" type="passenger"/>
    <trip id="veh36" depart="770.23" departLane="best" from="-190525648" to="190525652#2" type="passenger"/>
    <trip id="veh38" depart="813.02" departLane="best" from="95670247#1" to="35672873" type="passenger"/>
    <trip id="veh39" depart="834.41" departLane="best" from="-122173830#4" to="27458950#3" type="passenger"/>
    <trip id="veh40" depart="855.81" departLane="best" from="122173830#0" to="27458100#2" type="passenger"/>
    <trip id="veh41" depart="877.20" departLane="best" from="27207882#0" to="-56672602#1" type="passenger"/>
    <trip id="veh42" depart="898.60" departLane="best" from="122173854#0" to="27458100#2" type="passenger"/>
    <trip id="veh48" depart="1026.97" departLane="best" from="-27207882#1" to="27207922#3" type="passenger"/>
    <trip id="veh49" depart="1048.36" departLane="best" from="-190525648" to="27458953#4" type="passenger"/>
    <trip id="veh51" depart="1091.15" departLane="best" from="122173830#0" to="469517225" type="passenger"/>
    <trip id="veh53" depart="1133.94" departLane="best" from="99435290" to="27458933#1" type="passenger"/>
    <trip id="veh55" depart="1176.73" departLane="best" from="-190525648" to="27458100#2" type="passenger"/>
    <trip id="veh58" depart="1240.92" departLane="best" from="20573682#1" to="27458956" type="passenger"/>
    <trip id="veh59" depart="1262.31" departLane="best" from="35672875" to="105215545" type="passenger"/>
    <trip id="veh60" depart="1283.71" departLane="best" from="322535294#0" to="27458947#2" type="passenger"/>
    <trip id="veh61" depart="1305.11" departLane="best" from="190525652#0" to="129889569#1" type="passenger"/>
    <trip id="veh62" depart="1326.50" departLane="best" from="56672602#0" to="129040735" type="passenger"/>
    <trip id="veh64" depart="1369.29" departLane="best" from="190525652#3" to="129040739#2" type="passenger"/>
    <trip id="veh65" depart="1390.69" departLane="best" from="122173830#0" to="69922457" type="passenger"/>
    <trip id="veh66" depart="1412.08" departLane="best" from="27421964#0" to="-129040739#1" type="passenger"/>
    <trip id="veh68" depart="1454.87" departLane="best" from="56672601" to="-56672602#0" type="passenger"/>
    <trip id="veh69" depart="1476.27" departLane="best" from="190525652#0" to="-27207882#0" type="passenger"/>
    <trip id="veh71" depart="1519.06" departLane="best" from="122173830#0" to="27458956" type="passenger"/>
    <trip id="veh72" depart="1540.45" departLane="best" from="95670247#0" to="99435290" type="passenger"/>
    <trip id="veh73" depart="1561.85" departLane="best" from="27421964#0" to="27458950#3" type="passenger"/>
    <trip id="veh75" depart="1604.64" departLane="best" from="95670247#0" to="27457914" type="passenger"/>
    <trip id="veh76" depart="1626.03" departLane="best" from="27421964#0" to="27458953#4" type="passenger"/>
    <trip id="veh77" depart="1647.43" departLane="best" from="-190525648" to="27457914" type="passenger"/>
    <trip id="veh78" depart="1668.82" departLane="best" from="-197462220" to="-56672602#2" type="passenger"/>
    <trip id="veh79" depart="1690.22" departLane="best" from="27458046#2" to="27458947#2" type="passenger"/>
    <trip id="veh81" depart="1733.01" departLane="best" from="-35672873" to="27458950#3" type="passenger"/>
    <trip id="veh84" depart="1797.19" departLane="best" from="129040739#1" to="27458953#4" type="passenger"/>
    <trip id="veh85" depart="1818.59" departLane="best" from="-190525648" to="122173849#1" type="passenger"/>
    <trip id="veh86" depart="1839.98" departLane="best" from="122173830#0" to="69922466" type="passenger"/>
    <trip id="veh88" depart="1882.77" departLane="best" from="56672595" to="27458950#3" type="passenger"/>
    <trip id="veh89" depart="1904.17" departLane="best" from="27458947#0" to="-122173830#0" type="passenger"/>
    <trip id="veh90" depart="1925.56" departLane="best" from="27458947#1" to="95670245#0" type="passenger"/>
    <trip id="veh94" depart="2011.15" departLane="best" from="27459079" to="122173830#4" type="passenger"/>
    <trip id="veh95" depart="2032.54" departLane="best" from="27207882#0" to="56672602#1" type="passenger"/>
    <trip id="veh96" depart="2053.94" departLane="best" from="190525652#3" to="129040739#2" type="passenger"/>
    <trip id="veh97" depart="2075.33" departLane="best" from="-122173830#1" to="27458956" type="passenger"/>
    <trip id="veh98" depart="2096.73" departLane="best" from="27458947#0" to="129040739#1" type="passenger"/>
    <trip id="veh99" depart="2118.12" departLane="best" from="190525652#4" to="-122173830#0" type="passenger"/>
    <trip id="veh100" depart="2139.52" departLane="best" from="-190525648" to="56672594" type="passenger"/>
    <trip id="veh105" depart="2246.49" departLane="best" from="122173830#0" to="-27458933#2" type="passenger"/>
    <trip id="veh107" depart="2289.28" departLane="best" from="190525652#0" to="27458100#2" type="passenger"/>
    <trip id="veh109" depart="2332.07" departLane="best" from="35672875" to="56672594" type="passenger"/>
    <trip id="veh110" depart="2353.47" departLane="best" from="-129040739#1" to="27458953#3" type="passenger"/>
    <trip id="veh111" depart="2374.86" departLane="best" from="35672875" to="129040739#2" type="passenger"/>
    <trip id="veh114" depart="2439.05" departLane="best" from="-35673022#0" to="27459056" type="passenger"/>
    <trip id="veh115" depart="2460.44" departLane="best" from="35672875" to="129040735" type="passenger"/>
    <trip id="veh116" depart="2481.84" departLane="best" from="95670247#0" to="129040739#2" type="passenger"/>
    <trip id="veh118" depart="2524.63" departLane="best" from="95670245#0" to="-27458933#4" type="passenger"/>
    <trip id="veh119" depart="2546.02" departLane="best" from="95670247#0" to="129040739#2" type="passenger"/>
    <trip id="veh120" depart="2567.42" departLane="best" from="122173830#0" to="27458950#3" type="passenger"/>
    <trip id="veh121" depart="2588.81" departLane="best" from="-122173830#1" to="69922457" type="passenger"/>
    <trip id="veh128" depart="2738.58" departLane="best" from="190525652#0" to="129889550#1" type="passenger"/>
    <trip id="veh130" depart="2781.37" departLane="best" from="56672605" to="27458100#1" type="passenger"/>
    <trip id="veh131" depart="2802.77" departLane="best" from="122173854#1" to="27457860#2" type="passenger"/>
    <trip id="veh132" depart="2824.16" departLane="best" from="-122173830#1" to="129040739#2" type="passenger"/>
    <trip id="veh135" depart="2888.35" departLane="best" from="35672875" to="-56672602#0" type="passenger"/>
    <trip id="veh139" depart="2973.93" departLane="best" from="-35672873" to="-122173830#1" type="passenger"/>
    <trip id="veh141" depart="3016.72" departLane="best" from="190525652#2" to="27458100#2" type="passenger"/>
    <trip id="veh143" depart="3059.51" departLane="best" from="27207882#0" to="129040735" type="passenger"/>
    <trip id="veh144" depart="3080.90" departLane="best" from="27458947#0" to="-122173830#0" type="passenger"/>
    <trip id="veh145" depart="3102.30" departLane="best" from="322535294#1" to="27458956" type="passenger"/>
    <trip id="veh146" depart="3123.69" departLane="best" from="-27459052" to="95670251#0" type="passenger"/>
    <trip id="veh152" depart="3252.06" departLane="best" from="56672605" to="27458100#0" type="passenger"/>
    <trip id="veh155" depart="3316.25" departLane="best" from="56672605" to="27458953#4" type="passenger"/>
    <trip id="veh157" depart="3359.04" departLane="best" from="122173830#0" to="27458100#2" type="passenger"/>
    <trip id="veh158" depart="3380.44" departLane="best" from="-190525648" to="129040739#2" type="passenger"/>
    <trip id="veh161" depart="3444.62" departLane="best" from="190525652#0" to="27457860#1" type="passenger"/>
    <trip id="veh162" depart="3466.02" departLane="best" from="190525652#3" to="56672602#1" type="passenger"/>
    <trip id="veh164" depart="3508.81" departLane="best" from="129889566#2" to="27458953#4" type="passenger"/>
    <trip id="veh165" depart="3530.20" departLane="best" from="190525652#3" to="27458953#4" type="passenger"/>
    <trip id="veh166" depart="3551.60" departLane="best" from="202294098" to="-122173830#2" type="passenger"/>
    <trip id="veh167" depart="3572.99" departLane="best" from="190525652#0" to="-56672602#0" type="passenger"/>
</routes>
