<?xml version="1.0" encoding="UTF-8"?>

<!-- generated on Sat Dec  8 18:22:02 2018 by SUMO duarouter Version 0.30.0
<?xml version="1.0" encoding="UTF-8"?>

<configuration xmlns:xsi="http://www.w3.org/2001/XMLSchema-instance" xsi:noNamespaceSchemaLocation="http://sumo.dlr.de/xsd/duarouterConfiguration.xsd">

    <input>
        <net-file value="osm.net.xml"/>
        <trip-files value="osm.passenger.trips.xml"/>
    </input>

    <output>
        <output-file value="osm.passenger.rou.xml"/>
    </output>

    <processing>
        <ignore-errors value="true"/>
    </processing>

    <time>
        <begin value="0"/>
        <end value="3600.0"/>
    </time>

    <report>
        <no-warnings value="true"/>
        <no-step-log value="true"/>
    </report>

</configuration>
-->

<routes xmlns:xsi="http://www.w3.org/2001/XMLSchema-instance" xsi:noNamespaceSchemaLocation="http://sumo.dlr.de/xsd/routes_file.xsd">
    <vType id="passenger" vClass="passenger"/>
    <vehicle id="veh1" type="passenger" depart="21.40" departLane="best">
        <route edges="322535294#0 322535294#1 129889550#0 129889550#1 129889558#0 129889558#1 122173849#0 122173849#1 95670245#0 95670245#1 69922457 105215545 56672594 27458950#0 27458950#1 27458950#2 56672596#0 27458947#2"/>
    </vehicle>
    <vehicle id="veh3" type="passenger" depart="64.19" departLane="best">
        <route edges="190525652#3 190525652#4 27421938 58721773 95670260#0 95670260#1 20573682#0 20573682#1 122173849#0 122173849#1 95670245#0 95670245#1 69922457 105215545 27458933#0 27458933#1 27458933#2 27458933#3 27458933#4 -129040739#0 -129040738 -122173830#4 -122173830#2"/>
    </vehicle>
    <vehicle id="veh4" type="passenger" depart="85.58" departLane="best">
        <route edges="-35672873 27457860#1 27458046#1 27458046#2 27458046#3 27421964#1 35672620 222960088#0 27207922#3"/>
    </vehicle>
    <vehicle id="veh6" type="passenger" depart="128.37" departLane="best">
        <route edges="35672875 27458046#2 27458046#3 27421964#1 190525652#2 190525652#3 190525652#4 27421938 58721773 95670260#0 95670260#1 20573682#0 20573682#1 122173849#0 122173849#1 95670245#0 95670245#1 69922457 105215545 27458933#0 27458933#1 27458933#2 27458933#3 27458933#4 -129040739#0 -129040738 -122173830#4 -122173830#2 -122173830#1 -122173830#0"/>
    </vehicle>
    <vehicle id="veh7" type="passenger" depart="149.77" departLane="best">
        <route edges="35672875 27458046#2 27458046#3 27421964#1 190525652#2 190525652#3 190525652#4 27421938 58721773 95670260#0 95670260#1 20573682#0 20573682#1 122173849#0 122173849#1 95670245#0 95670245#1 69922457 105215545 56672594 27458950#0 27458950#1 27458950#2"/>
    </vehicle>
    <vehicle id="veh8" type="passenger" depart="171.16" departLane="best">
        <route edges="129889566#0 129889566#1 129889566#2 129889569#0 20573680#0 20573680#1 322535294#1 129889550#0 129889550#1 129889558#0 129889558#1 122173849#0 122173849#1 95670245#0 95670245#1 69922457 105215545 27458933#0 27458933#1 27458933#2 27458933#3 27458933#4 129040739#1 -56672602#2 -56672602#1 -56672602#0"/>
    </vehicle>
    <vehicle id="veh9" type="passenger" depart="192.56" departLane="best">
        <route edges="95670247#0 95670247#1 95670247#2 202294098 203465195 95670260#0 95670260#1 122173854#0 122173854#1 129889566#0 129889566#1 129889566#2 129889569#0 129889569#1"/>
    </vehicle>
    <vehicle id="veh11" type="passenger" depart="235.35" departLane="best">
        <route edges="35672875 27458046#2 27458046#3 27421964#1 190525652#2 190525652#3 190525652#4 27421938 58721773 95670260#0 95670260#1 20573682#0 20573682#1 122173849#0 122173849#1 95670245#0 95670245#1 69922457 105215545 27458933#0 27458933#1 27458933#2 27458933#3 27458953#0"/>
    </vehicle>
    <vehicle id="veh16" type="passenger" depart="342.32" departLane="best">
        <route edges="-197462220 95670247#2 202294098 203465195 95670260#0 95670260#1 20573682#0 20573682#1 122173849#0 122173849#1 95670245#0 95670245#1 69922457 105215545 27458933#0 27458933#1 27458933#2 27458933#3 27458933#4 -129040739#0 -129040738 -122173830#4 129040735"/>
    </vehicle>
    <vehicle id="veh20" type="passenger" depart="427.90" departLane="best">
        <route edges="122173830#0 122173830#1 122173830#2 122173830#4 129040738 129040739#0 -27458933#4 -27458933#3 -27458933#2 -27458933#1 -27458933#0 56672594 27458100#0 27459081 95670245#0 69922466"/>
    </vehicle>
    <vehicle id="veh23" type="passenger" depart="492.09" departLane="best">
        <route edges="95670260#0 95670260#1 20573682#0 20573682#1 122173849#0 122173849#1 95670245#0 95670245#1 69922457 105215545 56672594 27458100#0 27458100#1 27458100#2"/>
    </vehicle>
    <vehicle id="veh24" type="passenger" depart="513.48" departLane="best">
        <route edges="27421964#0 27421964#1 190525652#2 190525652#3 190525652#4 27421938 58721773 95670260#0 95670260#1 20573682#0 20573682#1 122173849#0 122173849#1 95670245#0 95670245#1 69922457 105215545 56672594 27458950#0 27459079 27458947#4"/>
    </vehicle>
    <vehicle id="veh25" type="passenger" depart="534.88" departLane="best">
        <route edges="56672596#1 -56672601 122173830#4 129040738 129040739#0 -27458933#4 -27458933#3 -27458933#2 -27458933#1 -27458933#0 27458956"/>
    </vehicle>
    <vehicle id="veh28" type="passenger" depart="599.06" departLane="best">
        <route edges="58721773 95670260#0 95670260#1 122173854#0 122173854#1 129889566#0 129889566#1 27458046#0 27458046#1 27458046#2 27458046#3 27421964#1 35672620 222960088#0 222960088#1"/>
    </vehicle>
    <vehicle id="veh29" type="passenger" depart="620.46" departLane="best">
        <route edges="122173830#0 122173830#1 122173830#2 129040735"/>
    </vehicle>
    <vehicle id="veh30" type="passenger" depart="641.85" departLane="best">
        <route edges="27421964#0 27421964#1 190525652#2 190525652#3 190525652#4 27421938 58721773 95670260#0 95670260#1 20573682#0 20573682#1 122173849#0 122173849#1 95670245#0 95670245#1 69922457 105215545 27458933#0 27458933#1 27458933#2 27458933#3 27458933#4 129040739#1"/>
    </vehicle>
    <vehicle id="veh31" type="passenger" depart="663.25" departLane="best">
        <route edges="27458046#0 27458046#1 27458046#2 27458046#3 27421964#1 190525652#2 190525652#3 190525652#4 27421938 58721773 95670260#0 95670260#1 20573682#0 20573682#1 122173849#0 122173849#1 95670245#0 95670245#1 69922457 105215545 56672594 27458950#0 27458950#1 27458950#2 56672596#0 56672596#1"/>
    </vehicle>
    <vehicle id="veh32" type="passenger" depart="684.65" departLane="best">
        <route edges="190525652#0 190525652#1 190525652#2 190525652#3 190525652#4 27421938 58721773 95670260#0 95670260#1 122173854#0"/>
    </vehicle>
    <vehicle id="veh34" type="passenger" depart="727.44" departLane="best">
        <route edges="-27421938 27421938 58721773 95670260#0 95670260#1 20573682#0 20573682#1 122173849#0 122173849#1 95670245#0 95670245#1 69922457 105215545 27458933#0 27458933#1 27458933#2 27458933#3 27458933#4 -129040739#0"/>
    </vehicle>
    <vehicle id="veh36" type="passenger" depart="770.23" departLane="best">
        <route edges="-190525648 -35673022#0 27457860#0 27457860#1 27458046#1 27458046#2 27458046#3 27421964#1 190525652#2"/>
    </vehicle>
    <vehicle id="veh38" type="passenger" depart="813.02" departLane="best">
        <route edges="95670247#1 95670247#2 202294098 27421933 -27421938 27457860#0 35672873"/>
    </vehicle>
    <vehicle id="veh39" type="passenger" depart="834.41" departLane="best">
        <route edges="-122173830#4 122173830#4 129040738 129040739#0 -27458933#4 -27458933#3 -27458933#2 -27458933#1 -27458933#0 56672594 27458950#0 27458950#1 27458950#2 27458950#3"/>
    </vehicle>
    <vehicle id="veh40" type="passenger" depart="855.81" departLane="best">
        <route edges="122173830#0 122173830#1 122173830#2 122173830#4 129040738 129040739#0 -27458933#4 -27458933#3 -27458933#2 -27458933#1 -27458933#0 56672594 27458100#0 27458100#1 27458100#2"/>
    </vehicle>
    <vehicle id="veh41" type="passenger" depart="877.20" departLane="best">
        <route edges="27207882#0 27207882#1 -35673022#0 27421938 58721773 95670260#0 95670260#1 20573682#0 20573682#1 122173849#0 122173849#1 95670245#0 95670245#1 69922457 105215545 27458933#0 27458933#1 27458933#2 27458933#3 27458933#4 129040739#1 -56672602#2 -56672602#1"/>
    </vehicle>
    <vehicle id="veh42" type="passenger" depart="898.60" departLane="best">
        <route edges="122173854#0 122173854#1 129889566#0 129889566#1 129889566#2 129889569#0 20573680#0 20573680#1 322535294#1 129889550#0 129889550#1 129889558#0 129889558#1 122173849#0 122173849#1 95670245#0 95670245#1 69922457 105215545 56672594 27458100#0 27458100#1 27458100#2"/>
    </vehicle>
    <vehicle id="veh48" type="passenger" depart="1026.97" departLane="best">
        <route edges="-27207882#1 27207882#1 -35673022#0 27207922#1 27207922#2 27207922#3"/>
    </vehicle>
    <vehicle id="veh49" type="passenger" depart="1048.36" departLane="best">
        <route edges="-190525648 -35673022#0 27421938 58721773 95670260#0 95670260#1 20573682#0 20573682#1 122173849#0 122173849#1 95670245#0 95670245#1 69922457 105215545 27458933#0 27458933#1 27458933#2 27458933#3 27458953#0 27458953#2 27458953#3 27458953#4"/>
    </vehicle>
    <vehicle id="veh51" type="passenger" depart="1091.15" departLane="best">
        <route edges="122173830#0 122173830#1 122173830#2 122173830#4 129040738 129040739#0 -27458933#4 -27458933#3 -27458933#2 -27458933#1 -27458933#0 56672594 27458100#0 27459081 95670245#0 95670245#1 69922457 469517225"/>
    </vehicle>
    <vehicle id="veh53" type="passenger" depart="1133.94" departLane="best">
        <route edges="99435290 27458953#3 27459056 122173830#1 122173830#2 122173830#4 129040738 129040739#0 -27458933#4 -27458933#3 -27458933#2 -27458933#1 27458933#1"/>
    </vehicle>
    <vehicle id="veh55" type="passenger" depart="1176.73" departLane="best">
        <route edges="-190525648 -35673022#0 27421938 58721773 95670260#0 95670260#1 20573682#0 20573682#1 122173849#0 122173849#1 95670245#0 95670245#1 69922457 105215545 56672594 27458100#0 27458100#1 27458100#2"/>
    </vehicle>
    <vehicle id="veh58" type="passenger" depart="1240.92" departLane="best">
        <route edges="20573682#1 122173849#0 122173849#1 95670245#0 95670245#1 69922457 105215545 27458956"/>
    </vehicle>
    <vehicle id="veh59" type="passenger" depart="1262.31" departLane="best">
        <route edges="35672875 27458046#2 27458046#3 27421964#1 190525652#2 190525652#3 190525652#4 27421938 58721773 95670260#0 95670260#1 20573682#0 20573682#1 122173849#0 122173849#1 95670245#0 95670245#1 69922457 105215545"/>
    </vehicle>
    <vehicle id="veh60" type="passenger" depart="1283.71" departLane="best">
        <route edges="322535294#0 322535294#1 129889550#0 129889550#1 129889558#0 129889558#1 122173849#0 122173849#1 95670245#0 95670245#1 69922457 105215545 56672594 27458950#0 27458950#1 27458950#2 56672596#0 27458947#2"/>
    </vehicle>
    <vehicle id="veh61" type="passenger" depart="1305.11" departLane="best">
        <route edges="190525652#0 190525652#1 190525652#2 190525652#3 190525652#4 27421938 58721773 95670260#0 95670260#1 122173854#0 122173854#1 129889566#0 129889566#1 129889566#2 129889569#0 129889569#1"/>
    </vehicle>
    <vehicle id="veh62" type="passenger" depart="1326.50" departLane="best">
        <route edges="56672602#0 56672602#1 56672602#2 -129040739#1 -129040739#0 -129040738 -122173830#4 129040735"/>
    </vehicle>
    <vehicle id="veh64" type="passenger" depart="1369.29" departLane="best">
        <route edges="190525652#3 190525652#4 27421938 58721773 95670260#0 95670260#1 20573682#0 20573682#1 122173849#0 122173849#1 95670245#0 95670245#1 69922457 105215545 27458933#0 27458933#1 27458933#2 27458933#3 27458933#4 129040739#1 129040739#2"/>
    </vehicle>
    <vehicle id="veh65" type="passenger" depart="1390.69" departLane="best">
        <route edges="122173830#0 122173830#1 122173830#2 122173830#4 129040738 129040739#0 -27458933#4 -27458933#3 -27458933#2 -27458933#1 -27458933#0 56672594 27458100#0 27459081 95670245#0 95670245#1 69922457"/>
    </vehicle>
    <vehicle id="veh66" type="passenger" depart="1412.08" departLane="best">
        <route edges="27421964#0 27421964#1 190525652#2 190525652#3 190525652#4 27421938 58721773 95670260#0 95670260#1 20573682#0 20573682#1 122173849#0 122173849#1 95670245#0 95670245#1 69922457 105215545 27458933#0 27458933#1 27458933#2 27458933#3 27458933#4 129040739#1 -129040739#1"/>
    </vehicle>
    <vehicle id="veh68" type="passenger" depart="1454.87" departLane="best">
        <route edges="56672601 -56672601 122173830#4 129040738 129040739#0 129040739#1 -56672602#2 -56672602#1 -56672602#0"/>
    </vehicle>
    <vehicle id="veh69" type="passenger" depart="1476.27" departLane="best">
        <route edges="190525652#0 190525652#1 190525652#2 190525652#3 190525652#4 35673022#0 -27207882#1 -27207882#0"/>
    </vehicle>
    <vehicle id="veh71" type="passenger" depart="1519.06" departLane="best">
        <route edges="122173830#0 122173830#1 122173830#2 122173830#4 129040738 129040739#0 -27458933#4 -27458933#3 -27458933#2 -27458933#1 -27458933#0 27458956"/>
    </vehicle>
    <vehicle id="veh72" type="passenger" depart="1540.45" departLane="best">
        <route edges="95670247#0 95670247#1 95670247#2 202294098 203465195 95670260#0 95670260#1 20573682#0 20573682#1 122173849#0 122173849#1 95670245#0 95670245#1 69922457 105215545 27458933#0 27458933#1 27458933#2 27458933#3 27458933#4 -129040739#0 -129040738 -122173830#4 -122173830#2 99435290"/>
    </vehicle>
    <vehicle id="veh73" type="passenger" depart="1561.85" departLane="best">
        <route edges="27421964#0 27421964#1 190525652#2 190525652#3 190525652#4 27421938 58721773 95670260#0 95670260#1 20573682#0 20573682#1 122173849#0 122173849#1 95670245#0 95670245#1 69922457 105215545 56672594 27458950#0 27458950#1 27458950#2 27458950#3"/>
    </vehicle>
    <vehicle id="veh75" type="passenger" depart="1604.64" departLane="best">
        <route edges="95670247#0 95670247#1 95670247#2 202294098 27421933 -27421938 27207922#1 27457914"/>
    </vehicle>
    <vehicle id="veh76" type="passenger" depart="1626.03" departLane="best">
        <route edges="27421964#0 27421964#1 190525652#2 190525652#3 190525652#4 27421938 58721773 95670260#0 95670260#1 20573682#0 20573682#1 122173849#0 122173849#1 95670245#0 95670245#1 69922457 105215545 27458933#0 27458933#1 27458933#2 27458933#3 27458953#0 27458953#2 27458953#3 27458953#4"/>
    </vehicle>
    <vehicle id="veh77" type="passenger" depart="1647.43" departLane="best">
        <route edges="-190525648 -35673022#0 27207922#1 27457914"/>
    </vehicle>
    <vehicle id="veh78" type="passenger" depart="1668.82" departLane="best">
        <route edges="-197462220 95670247#2 202294098 203465195 95670260#0 95670260#1 20573682#0 20573682#1 122173849#0 122173849#1 95670245#0 95670245#1 69922457 105215545 27458933#0 27458933#1 27458933#2 27458933#3 27458933#4 129040739#1 -56672602#2"/>
    </vehicle>
    <vehicle id="veh79" type="passenger" depart="1690.22" departLane="best">
        <route edges="27458046#2 27458046#3 27421964#1 190525652#2 190525652#3 190525652#4 27421938 58721773 95670260#0 95670260#1 20573682#0 20573682#1 122173849#0 122173849#1 95670245#0 95670245#1 69922457 105215545 56672594 27458950#0 27458950#1 27458950#2 56672596#0 27458947#2"/>
    </vehicle>
    <vehicle id="veh81" type="passenger" depart="1733.01" departLane="best">
        <route edges="-35672873 27457860#1 27458046#1 27458046#2 27458046#3 27421964#1 190525652#2 190525652#3 190525652#4 27421938 58721773 95670260#0 95670260#1 20573682#0 20573682#1 122173849#0 122173849#1 95670245#0 95670245#1 69922457 105215545 56672594 27458950#0 27458950#1 27458950#2 27458950#3"/>
    </vehicle>
    <vehicle id="veh84" type="passenger" depart="1797.19" departLane="best">
        <route edges="129040739#1 -129040739#1 -129040739#0 -129040738 -122173830#4 56672601 27458953#2 27458953#3 27458953#4"/>
    </vehicle>
    <vehicle id="veh85" type="passenger" depart="1818.59" departLane="best">
        <route edges="-190525648 -35673022#0 27421938 58721773 95670260#0 95670260#1 20573682#0 20573682#1 122173849#0 122173849#1"/>
    </vehicle>
    <vehicle id="veh86" type="passenger" depart="1839.98" departLane="best">
        <route edges="122173830#0 122173830#1 122173830#2 122173830#4 129040738 129040739#0 -27458933#4 -27458933#3 -27458933#2 -27458933#1 -27458933#0 56672594 27458100#0 27459081 95670245#0 69922466"/>
    </vehicle>
    <vehicle id="veh88" type="passenger" depart="1882.77" departLane="best">
        <route edges="56672595 27458950#2 27458950#3"/>
    </vehicle>
    <vehicle id="veh89" type="passenger" depart="1904.17" departLane="best">
        <route edges="27458947#0 27458947#1 56672596#1 27458953#2 27458953#3 27459056 -122173830#0"/>
    </vehicle>
    <vehicle id="veh90" type="passenger" depart="1925.56" departLane="best">
        <route edges="27458947#1 27458947#2 27458947#3 27458947#4 -27458933#0 56672594 27458100#0 27459081 95670245#0"/>
    </vehicle>
    <vehicle id="veh94" type="passenger" depart="2011.15" departLane="best">
        <route edges="27459079 27458947#4 27458933#1 27458933#2 27458933#3 27458933#4 -129040739#0 -129040738 -122173830#4 122173830#4"/>
    </vehicle>
    <vehicle id="veh95" type="passenger" depart="2032.54" departLane="best">
        <route edges="27207882#0 27207882#1 -35673022#0 27421938 58721773 95670260#0 95670260#1 20573682#0 20573682#1 122173849#0 122173849#1 95670245#0 95670245#1 69922457 105215545 27458933#0 27458933#1 27458933#2 27458933#3 27458933#4 129040739#1 -56672602#2 -56672602#1 56672602#1"/>
    </vehicle>
    <vehicle id="veh96" type="passenger" depart="2053.94" departLane="best">
        <route edges="190525652#3 190525652#4 27421938 58721773 95670260#0 95670260#1 20573682#0 20573682#1 122173849#0 122173849#1 95670245#0 95670245#1 69922457 105215545 27458933#0 27458933#1 27458933#2 27458933#3 27458933#4 129040739#1 129040739#2"/>
    </vehicle>
    <vehicle id="veh97" type="passenger" depart="2075.33" departLane="best">
        <route edges="-122173830#1 122173830#1 122173830#2 122173830#4 129040738 129040739#0 -27458933#4 -27458933#3 -27458933#2 -27458933#1 -27458933#0 27458956"/>
    </vehicle>
    <vehicle id="veh98" type="passenger" depart="2096.73" departLane="best">
        <route edges="27458947#0 27458947#1 56672596#1 -56672601 122173830#4 129040738 129040739#0 129040739#1"/>
    </vehicle>
    <vehicle id="veh99" type="passenger" depart="2118.12" departLane="best">
        <route edges="190525652#4 27421938 58721773 95670260#0 95670260#1 20573682#0 20573682#1 122173849#0 122173849#1 95670245#0 95670245#1 69922457 105215545 27458933#0 27458933#1 27458933#2 27458933#3 27458933#4 -129040739#0 -129040738 -122173830#4 -122173830#2 -122173830#1 -122173830#0"/>
    </vehicle>
    <vehicle id="veh100" type="passenger" depart="2139.52" departLane="best">
        <route edges="-190525648 -35673022#0 27421938 58721773 95670260#0 95670260#1 20573682#0 20573682#1 122173849#0 122173849#1 95670245#0 95670245#1 69922457 105215545 56672594"/>
    </vehicle>
    <vehicle id="veh105" type="passenger" depart="2246.49" departLane="best">
        <route edges="122173830#0 122173830#1 122173830#2 122173830#4 129040738 129040739#0 -27458933#4 -27458933#3 -27458933#2"/>
    </vehicle>
    <vehicle id="veh107" type="passenger" depart="2289.28" departLane="best">
        <route edges="190525652#0 190525652#1 190525652#2 190525652#3 190525652#4 27421938 58721773 95670260#0 95670260#1 20573682#0 20573682#1 122173849#0 122173849#1 95670245#0 95670245#1 69922457 105215545 56672594 27458100#0 27458100#1 27458100#2"/>
    </vehicle>
    <vehicle id="veh109" type="passenger" depart="2332.07" departLane="best">
        <route edges="35672875 27458046#2 27458046#3 27421964#1 190525652#2 190525652#3 190525652#4 27421938 58721773 95670260#0 95670260#1 20573682#0 20573682#1 122173849#0 122173849#1 95670245#0 95670245#1 69922457 105215545 56672594"/>
    </vehicle>
    <vehicle id="veh110" type="passenger" depart="2353.47" departLane="best">
        <route edges="-129040739#1 -129040739#0 -129040738 -122173830#4 56672601 27458953#2 27458953#3"/>
    </vehicle>
    <vehicle id="veh111" type="passenger" depart="2374.86" departLane="best">
        <route edges="35672875 27458046#2 27458046#3 27421964#1 190525652#2 190525652#3 190525652#4 27421938 58721773 95670260#0 95670260#1 20573682#0 20573682#1 122173849#0 122173849#1 95670245#0 95670245#1 69922457 105215545 27458933#0 27458933#1 27458933#2 27458933#3 27458933#4 129040739#1 129040739#2"/>
    </vehicle>
    <vehicle id="veh114" type="passenger" depart="2439.05" departLane="best">
        <route edges="-35673022#0 27421938 58721773 95670260#0 95670260#1 20573682#0 20573682#1 122173849#0 122173849#1 95670245#0 95670245#1 69922457 105215545 27458933#0 27458933#1 27458933#2 27458933#3 27458953#0 27458953#2 27458953#3 27459056"/>
    </vehicle>
    <vehicle id="veh115" type="passenger" depart="2460.44" departLane="best">
        <route edges="35672875 27458046#2 27458046#3 27421964#1 190525652#2 190525652#3 190525652#4 27421938 58721773 95670260#0 95670260#1 20573682#0 20573682#1 122173849#0 122173849#1 95670245#0 95670245#1 69922457 105215545 27458933#0 27458933#1 27458933#2 27458933#3 27458933#4 -129040739#0 -129040738 -122173830#4 129040735"/>
    </vehicle>
    <vehicle id="veh116" type="passenger" depart="2481.84" departLane="best">
        <route edges="95670247#0 95670247#1 95670247#2 202294098 203465195 95670260#0 95670260#1 20573682#0 20573682#1 122173849#0 122173849#1 95670245#0 95670245#1 69922457 105215545 27458933#0 27458933#1 27458933#2 27458933#3 27458933#4 129040739#1 129040739#2"/>
    </vehicle>
    <vehicle id="veh118" type="passenger" depart="2524.63" departLane="best">
        <route edges="95670245#0 95670245#1 69922457 105215545 27458933#0 27458933#1 27458933#2 27458933#3 27458933#4 -27458933#4"/>
    </vehicle>
    <vehicle id="veh119" type="passenger" depart="2546.02" departLane="best">
        <route edges="95670247#0 95670247#1 95670247#2 202294098 203465195 95670260#0 95670260#1 20573682#0 20573682#1 122173849#0 122173849#1 95670245#0 95670245#1 69922457 105215545 27458933#0 27458933#1 27458933#2 27458933#3 27458933#4 129040739#1 129040739#2"/>
    </vehicle>
    <vehicle id="veh120" type="passenger" depart="2567.42" departLane="best">
        <route edges="122173830#0 122173830#1 122173830#2 122173830#4 129040738 129040739#0 -27458933#4 -27458933#3 -27458933#2 -27458933#1 -27458933#0 56672594 27458950#0 27458950#1 27458950#2 27458950#3"/>
    </vehicle>
    <vehicle id="veh121" type="passenger" depart="2588.81" departLane="best">
        <route edges="-122173830#1 122173830#1 122173830#2 122173830#4 129040738 129040739#0 -27458933#4 -27458933#3 -27458933#2 -27458933#1 -27458933#0 56672594 27458100#0 27459081 95670245#0 95670245#1 69922457"/>
    </vehicle>
    <vehicle id="veh128" type="passenger" depart="2738.58" departLane="best">
        <route edges="190525652#0 190525652#1 190525652#2 190525652#3 190525652#4 27421938 58721773 95670260#0 95670260#1 122173854#0 122173854#1 129889566#0 129889566#1 129889566#2 129889569#0 20573680#0 20573680#1 322535294#1 129889550#0 129889550#1"/>
    </vehicle>
    <vehicle id="veh130" type="passenger" depart="2781.37" departLane="best">
        <route edges="56672605 -129040739#1 -27458933#4 -27458933#3 -27458933#2 -27458933#1 -27458933#0 56672594 27458100#0 27458100#1"/>
    </vehicle>
    <vehicle id="veh131" type="passenger" depart="2802.77" departLane="best">
        <route edges="122173854#1 129889566#0 129889566#1 27458046#0 27457860#2"/>
    </vehicle>
    <vehicle id="veh132" type="passenger" depart="2824.16" departLane="best">
        <route edges="-122173830#1 122173830#1 122173830#2 122173830#4 129040738 129040739#0 129040739#1 129040739#2"/>
    </vehicle>
    <vehicle id="veh135" type="passenger" depart="2888.35" departLane="best">
        <route edges="35672875 27458046#2 27458046#3 27421964#1 190525652#2 190525652#3 190525652#4 27421938 58721773 95670260#0 95670260#1 20573682#0 20573682#1 122173849#0 122173849#1 95670245#0 95670245#1 69922457 105215545 27458933#0 27458933#1 27458933#2 27458933#3 27458933#4 129040739#1 -56672602#2 -56672602#1 -56672602#0"/>
    </vehicle>
    <vehicle id="veh139" type="passenger" depart="2973.93" departLane="best">
        <route edges="-35672873 27457860#1 27458046#1 27458046#2 27458046#3 27421964#1 190525652#2 190525652#3 190525652#4 27421938 58721773 95670260#0 95670260#1 20573682#0 20573682#1 122173849#0 122173849#1 95670245#0 95670245#1 69922457 105215545 27458933#0 27458933#1 27458933#2 27458933#3 27458933#4 -129040739#0 -129040738 -122173830#4 -122173830#2 -122173830#1"/>
    </vehicle>
    <vehicle id="veh141" type="passenger" depart="3016.72" departLane="best">
        <route edges="190525652#2 190525652#3 190525652#4 27421938 58721773 95670260#0 95670260#1 20573682#0 20573682#1 122173849#0 122173849#1 95670245#0 95670245#1 69922457 105215545 56672594 27458100#0 27458100#1 27458100#2"/>
    </vehicle>
    <vehicle id="veh143" type="passenger" depart="3059.51" departLane="best">
        <route edges="27207882#0 27207882#1 -35673022#0 27421938 58721773 95670260#0 95670260#1 20573682#0 20573682#1 122173849#0 122173849#1 95670245#0 95670245#1 69922457 105215545 27458933#0 27458933#1 27458933#2 27458933#3 27458933#4 -129040739#0 -129040738 -122173830#4 129040735"/>
    </vehicle>
    <vehicle id="veh144" type="passenger" depart="3080.90" departLane="best">
        <route edges="27458947#0 27458947#1 56672596#1 27458953#2 27458953#3 27459056 -122173830#0"/>
    </vehicle>
    <vehicle id="veh145" type="passenger" depart="3102.30" departLane="best">
        <route edges="322535294#1 129889550#0 129889550#1 129889558#0 129889558#1 122173849#0 122173849#1 95670245#0 95670245#1 69922457 105215545 27458956"/>
    </vehicle>
    <vehicle id="veh146" type="passenger" depart="3123.69" departLane="best">
        <route edges="-27459052 27458947#1 27458947#2 27458947#3 27458947#4 -27458933#0 56672594 27458100#0 27459081 95670245#0 95670245#1 69922457 469517225 95670251#0"/>
    </vehicle>
    <vehicle id="veh152" type="passenger" depart="3252.06" departLane="best">
        <route edges="56672605 -129040739#1 -27458933#4 -27458933#3 -27458933#2 -27458933#1 -27458933#0 56672594 27458100#0"/>
    </vehicle>
    <vehicle id="veh155" type="passenger" depart="3316.25" departLane="best">
        <route edges="56672605 -129040739#1 -129040739#0 -129040738 -122173830#4 56672601 27458953#2 27458953#3 27458953#4"/>
    </vehicle>
    <vehicle id="veh157" type="passenger" depart="3359.04" departLane="best">
        <route edges="122173830#0 122173830#1 122173830#2 122173830#4 129040738 129040739#0 -27458933#4 -27458933#3 -27458933#2 -27458933#1 -27458933#0 56672594 27458100#0 27458100#1 27458100#2"/>
    </vehicle>
    <vehicle id="veh158" type="passenger" depart="3380.44" departLane="best">
        <route edges="-190525648 -35673022#0 27421938 58721773 95670260#0 95670260#1 20573682#0 20573682#1 122173849#0 122173849#1 95670245#0 95670245#1 69922457 105215545 27458933#0 27458933#1 27458933#2 27458933#3 27458933#4 129040739#1 129040739#2"/>
    </vehicle>
    <vehicle id="veh161" type="passenger" depart="3444.62" departLane="best">
        <route edges="190525652#0 190525652#1 190525652#2 190525652#3 190525652#4 27457860#0 27457860#1"/>
    </vehicle>
    <vehicle id="veh162" type="passenger" depart="3466.02" departLane="best">
        <route edges="190525652#3 190525652#4 27421938 58721773 95670260#0 95670260#1 20573682#0 20573682#1 122173849#0 122173849#1 95670245#0 95670245#1 69922457 105215545 27458933#0 27458933#1 27458933#2 27458933#3 27458933#4 129040739#1 -56672602#2 -56672602#1 56672602#1"/>
    </vehicle>
    <vehicle id="veh164" type="passenger" depart="3508.81" departLane="best">
        <route edges="129889566#2 129889569#0 20573680#0 20573680#1 322535294#1 129889550#0 129889550#1 129889558#0 129889558#1 122173849#0 122173849#1 95670245#0 95670245#1 69922457 105215545 27458933#0 27458933#1 27458933#2 27458933#3 27458953#0 27458953#2 27458953#3 27458953#4"/>
    </vehicle>
    <vehicle id="veh165" type="passenger" depart="3530.20" departLane="best">
        <route edges="190525652#3 190525652#4 27421938 58721773 95670260#0 95670260#1 20573682#0 20573682#1 122173849#0 122173849#1 95670245#0 95670245#1 69922457 105215545 27458933#0 27458933#1 27458933#2 27458933#3 27458953#0 27458953#2 27458953#3 27458953#4"/>
    </vehicle>
    <vehicle id="veh166" type="passenger" depart="3551.60" departLane="best">
        <route edges="202294098 203465195 95670260#0 95670260#1 20573682#0 20573682#1 122173849#0 122173849#1 95670245#0 95670245#1 69922457 105215545 27458933#0 27458933#1 27458933#2 27458933#3 27458933#4 -129040739#0 -129040738 -122173830#4 -122173830#2"/>
    </vehicle>
    <vehicle id="veh167" type="passenger" depart="3572.99" departLane="best">
        <route edges="190525652#0 190525652#1 190525652#2 190525652#3 190525652#4 27421938 58721773 95670260#0 95670260#1 20573682#0 20573682#1 122173849#0 122173849#1 95670245#0 95670245#1 69922457 105215545 27458933#0 27458933#1 27458933#2 27458933#3 27458933#4 129040739#1 -56672602#2 -56672602#1 -56672602#0"/>
    </vehicle>
</routes>
