<?xml version="1.0" encoding="UTF-8"?>

<!-- generated on Sat Dec  8 18:22:02 2018 by SUMO polyconvert Version 0.30.0
<?xml version="1.0" encoding="UTF-8"?>

<configuration xmlns:xsi="http://www.w3.org/2001/XMLSchema-instance" xsi:noNamespaceSchemaLocation="http://sumo.dlr.de/xsd/polyconvertConfiguration.xsd">

    <input>
        <net-file value="/home/jordan/Downloads/sumo-0.30.0/tools/2018-12-08-18-22-01/osm.net.xml"/>
        <osm-files value="osm_bbox.osm.xml"/>
        <osm.keep-full-type value="true"/>
        <type-file value="/home/jordan/Downloads/sumo-0.30.0/data/typemap/osmPolyconvert.typ.xml"/>
    </input>

    <output>
        <output-file value="/home/jordan/Downloads/sumo-0.30.0/tools/2018-12-08-18-22-01/osm.poly.xml"/>
    </output>

    <processing>
        <poi-layer-offset value="5"/>
    </processing>

    <report>
        <verbose value="true"/>
    </report>

</configuration>
-->

<additional xmlns:xsi="http://www.w3.org/2001/XMLSchema-instance" xsi:noNamespaceSchemaLocation="http://sumo.dlr.de/xsd/additional_file.xsd">
    <location netOffset="-297869.43,-4638469.51" convBoundary="-0.00,0.00,1628.71,2478.70" origBoundary="12.564047,41.872664,12.583691,41.894869" projParameter="+proj=utm +zone=33 +ellps=WGS84 +datum=WGS84 +units=m +no_defs"/>

    <poly id="154863684" type="historic.aqueduct" color="128,255,128" fill="0" layer="-1.00" shape="976.03,689.56 929.19,678.97 867.45,667.20 806.21,655.20 754.50,644.63 732.81,640.59 727.08,639.40 721.20,638.17 715.67,637.02 710.39,635.92 704.74,634.74 698.17,633.38 692.84,632.26 642.67,621.71"/>
    <poly id="154863685" type="historic.aqueduct" color="128,255,128" fill="0" layer="-1.00" shape="980.60,691.05 1021.24,699.55"/>
    <poly id="154863686" type="historic.aqueduct" color="128,255,128" fill="0" layer="-1.00" shape="1097.06,711.90 1104.05,713.15"/>
    <poly id="154863687" type="historic.aqueduct" color="128,255,128" fill="0" layer="-1.00" shape="1026.60,700.37 1063.30,706.90"/>
    <poly id="154863688" type="historic.aqueduct" color="128,255,128" fill="0" layer="-1.00" shape="1072.70,707.76 1088.14,710.54"/>
    <poly id="154863689" type="historic.aqueduct" color="128,255,128" fill="0" layer="-1.00" shape="574.51,607.76 544.74,600.88 509.47,593.99 452.30,583.86"/>
    <poly id="154863690" type="historic.citywalls" color="128,255,128" fill="0" layer="-1.00" shape="441.25,581.44 409.81,576.26 404.44,575.38 399.93,574.34"/>
    <poly id="154863690#1" type="man_made.city_wall" color="255,230,230" fill="0" layer="-1.00" shape="441.25,581.44 409.81,576.26 404.44,575.38 399.93,574.34"/>
    <poly id="154865104" type="historic.citywalls" color="128,255,128" fill="0" layer="-1.00" shape="395.78,573.58 317.39,559.35"/>
    <poly id="154865104#1" type="man_made.city_wall" color="255,230,230" fill="0" layer="-1.00" shape="395.78,573.58 317.39,559.35"/>
    <poly id="209692914" type="landuse.residential" color="235,235,227" fill="1" layer="-3.00" shape="737.49,77.61 760.87,146.07 758.51,157.87 761.89,170.36 769.96,175.83 774.61,174.02 784.28,182.46 796.96,190.49 819.57,192.86 1274.45,25.58 1283.62,50.77 1280.53,64.45 1307.02,71.07 1282.57,167.41 1360.55,186.40 1355.53,202.43 1346.24,202.21 1336.42,242.32 1368.56,251.14 1374.25,233.19 1438.39,250.24 1448.35,215.53 1453.57,210.02 1491.72,218.19 1486.85,297.66 1477.11,476.60 1465.33,548.51 1502.53,549.93 1502.15,574.27 1526.23,574.64 1527.98,598.92 1549.61,600.60 1551.25,564.86 1628.71,566.64 1622.76,684.92 1526.30,684.11 1525.67,739.38 1525.57,747.51 1497.15,748.20 1436.92,757.09 1421.19,860.82 1448.80,957.82 1450.72,1074.82 1447.12,1191.98 1422.08,1309.04 1345.08,1448.95 1338.24,1570.63 1335.35,1623.18 1311.60,1622.50 1308.64,1674.97 1401.88,1682.42 1399.33,1706.80 1337.15,1747.84 1320.17,1763.27 1345.23,1781.90 1358.06,1791.89 1338.34,1861.53 1324.66,1912.13 1321.97,1920.56 1319.57,1935.89 1309.14,1938.79 1308.29,1943.37 1302.27,1943.86 1299.42,1940.15 1235.18,1941.97 1074.18,1941.77 1023.37,1943.73 976.12,1958.08 898.89,1980.68 876.49,1888.89 844.14,1676.54 802.22,1242.42 799.35,1203.11 795.84,1155.00 766.43,740.61 736.83,654.82 734.96,616.19 679.81,505.60 640.87,446.37 492.64,174.17 678.97,100.72 737.49,77.61"/>
    <poly id="304663556" type="building.residential" color="255,230,230" fill="1" layer="-1.00" shape="374.21,330.08 383.46,349.43 370.26,355.92 358.03,333.18 371.11,330.81 374.21,330.08"/>
    <poly id="304665972" type="building.residential" color="255,230,230" fill="1" layer="-1.00" shape="484.88,352.25 495.00,371.26 507.27,364.03 497.18,346.13 484.88,352.25"/>
    <poly id="304665973" type="building.residential" color="255,230,230" fill="1" layer="-1.00" shape="497.08,373.87 509.26,395.27 520.24,389.42 508.93,367.77 497.08,373.87"/>
    <poly id="304665974" type="building.residential" color="255,230,230" fill="1" layer="-1.00" shape="511.41,400.10 521.25,417.12 532.45,411.48 523.03,393.55 511.41,400.10"/>
    <poly id="304665975" type="building.residential" color="255,230,230" fill="1" layer="-1.00" shape="543.74,408.94 545.54,412.07 538.17,415.81 530.11,399.57 533.40,397.92 539.98,409.94 543.74,408.94"/>
    <poly id="304665976" type="building.residential" color="255,230,230" fill="1" layer="-1.00" shape="533.40,397.92 530.35,392.46 547.02,383.33 559.10,405.15 548.81,410.40 540.87,394.15 533.40,397.92"/>
    <poly id="304665977" type="building.residential" color="255,230,230" fill="1" layer="-1.00" shape="520.03,374.33 526.85,387.01 541.34,379.49 534.95,366.14 520.03,374.33"/>
    <poly id="304665978" type="building.residential" color="255,230,230" fill="1" layer="-1.00" shape="519.39,367.03 533.20,359.53 527.50,346.82 512.57,354.56 519.39,367.03"/>
    <poly id="304665979" type="building.residential" color="255,230,230" fill="1" layer="-1.00" shape="506.25,351.64 523.57,341.60 516.99,329.59 500.09,338.93 506.25,351.64"/>
    <poly id="304665982" type="leisure.park" color="207,245,201" fill="1" layer="-2.00" shape="549.92,336.20 547.76,338.70 547.46,343.59 549.87,350.18 553.88,357.84 563.53,375.99 578.79,404.28 595.25,426.23 608.40,418.88 603.07,401.46 579.13,360.67 569.26,342.53 564.59,334.90 558.49,331.96 552.72,333.01 549.92,336.20"/>
    <poly id="304665983" type="leisure.park" color="207,245,201" fill="1" layer="-2.00" shape="643.42,499.11 647.78,495.89 649.39,489.63 646.47,481.05 640.14,470.13 613.33,423.17 598.09,431.47 632.23,497.66 637.65,500.16 643.42,499.11"/>
    <poly id="304665984" type="leisure.park" color="207,245,201" fill="1" layer="-2.00" shape="649.34,519.59 647.92,524.73 650.80,531.97 669.92,561.84 690.68,579.01 699.14,590.58 705.43,604.60 708.04,618.08 705.92,633.78 704.52,646.91 706.03,660.96 716.11,698.51 721.04,715.35 726.72,727.17 732.64,755.30 735.03,776.76 737.19,798.12 740.58,823.54 744.32,825.43 757.52,823.73 760.13,821.43 756.41,784.36 750.60,752.36 746.34,735.39 739.92,721.48 730.15,706.66 721.18,692.71 716.01,683.09 711.57,663.92 711.81,652.81 714.23,632.21 713.78,620.12 711.23,608.88 706.37,594.26 689.43,558.67 670.79,525.69 664.73,516.43 658.00,514.40 653.55,514.86 649.34,519.59"/>
    <poly id="305314985" type="building.residential" color="255,230,230" fill="1" layer="-1.00" shape="604.70,706.89 622.25,704.92 621.91,692.92 603.00,692.36 604.70,706.89"/>
    <poly id="305314990" type="building.residential" color="255,230,230" fill="1" layer="-1.00" shape="563.10,736.51 584.75,735.15 583.83,722.44 563.13,724.31 563.10,736.51"/>
    <poly id="305314994" type="building.residential" color="255,230,230" fill="1" layer="-1.00" shape="653.47,747.24 669.00,746.05 668.82,733.13 651.80,733.99 653.47,747.24"/>
    <poly id="305314996" type="building.residential" color="255,230,230" fill="1" layer="-1.00" shape="671.49,709.62 686.11,708.65 684.66,696.69 670.97,697.64 671.49,709.62"/>
    <poly id="305314998" type="building.residential" color="255,230,230" fill="1" layer="-1.00" shape="632.22,749.32 643.32,748.64 641.68,730.04 630.59,731.08 632.22,749.32"/>
    <poly id="305315000" type="building.residential" color="255,230,230" fill="1" layer="-1.00" shape="630.35,722.60 643.68,722.03 641.66,696.61 628.15,697.37 630.35,722.60"/>
    <poly id="305315001" type="building.residential" color="255,230,230" fill="1" layer="-1.00" shape="673.54,723.03 687.41,721.72 687.04,715.45 673.55,716.75 673.54,723.03"/>
    <poly id="305315016" type="building.residential" color="255,230,230" fill="1" layer="-1.00" shape="605.97,725.50 622.98,724.10 621.70,711.58 605.61,712.78 605.97,725.50"/>
    <poly id="305315025" type="building.residential" color="255,230,230" fill="1" layer="-1.00" shape="677.89,745.80 692.67,744.09 692.31,731.55 677.32,732.16 677.89,745.80"/>
    <poly id="305315037" type="building.residential" color="255,230,230" fill="1" layer="-1.00" shape="651.12,723.11 663.32,721.84 661.88,697.34 649.13,698.43 651.12,723.11"/>
    <poly id="305315050" type="building.residential" color="255,230,230" fill="1" layer="-1.00" shape="608.22,752.40 622.46,751.44 620.95,730.99 607.45,731.74 608.22,752.40"/>
    <poly id="305315062" type="building.residential" color="255,230,230" fill="1" layer="-1.00" shape="564.03,755.86 585.28,753.78 584.60,742.91 568.50,743.92 568.27,748.91 564.02,749.21 564.03,755.86"/>
    <poly id="305315076" type="building.residential" color="255,230,230" fill="1" layer="-1.00" shape="533.88,751.55 540.90,757.44 543.96,754.03 547.38,757.08 553.84,749.50 550.60,746.46 553.45,742.68 545.50,736.63 533.88,751.55"/>
    <poly id="305315081" type="building.residential" color="255,230,230" fill="1" layer="-1.00" shape="562.99,712.69 567.72,716.25 578.27,715.58 578.91,712.05 581.05,709.23 583.63,708.96 583.79,694.75 577.68,694.73 562.99,712.69"/>
    <poly id="305318294" type="building.residential" color="255,230,230" fill="1" layer="-1.00" shape="388.57,714.79 406.30,712.81 406.53,707.81 403.36,707.17 402.63,694.27 387.81,694.69 387.65,702.07 391.72,701.78 391.36,708.61 388.22,708.89 388.57,714.79"/>
    <poly id="305318298" type="building.residential" color="255,230,230" fill="1" layer="-1.00" shape="551.69,696.87 534.91,719.13 528.81,713.40 531.32,710.19 527.31,706.43 532.31,699.45 528.90,696.78 531.75,692.63 536.84,696.00 539.71,692.41 541.79,693.83 543.73,690.64 551.69,696.87"/>
    <poly id="305318303" type="building.residential" color="255,230,230" fill="1" layer="-1.00" shape="434.78,769.60 444.77,768.76 443.73,751.81 434.30,752.63 434.78,769.60"/>
    <poly id="305318305" type="building.residential" color="255,230,230" fill="1" layer="-1.00" shape="441.27,711.07 441.30,698.71 428.32,698.71 429.26,711.97 441.27,711.07"/>
    <poly id="305318310" type="building.residential" color="255,230,230" fill="1" layer="-1.00" shape="458.33,731.08 457.23,718.19 446.49,718.32 447.97,731.38 458.33,731.08"/>
    <poly id="305318314" type="building.residential" color="255,230,230" fill="1" layer="-1.00" shape="518.36,664.95 532.59,663.63 532.02,650.16 517.22,650.77 518.36,664.95"/>
    <poly id="305318320" type="building.residential" color="255,230,230" fill="1" layer="-1.00" shape="506.26,643.51 504.79,630.63 493.32,631.50 494.43,644.58 506.26,643.51"/>
    <poly id="305318324" type="building.residential" color="255,230,230" fill="1" layer="-1.00" shape="515.98,685.70 515.63,673.52 498.05,674.39 498.60,686.93 515.98,685.70"/>
    <poly id="305318326" type="building.residential" color="255,230,230" fill="1" layer="-1.00" shape="492.12,706.87 490.79,692.69 469.68,693.47 470.67,708.76 492.12,706.87"/>
    <poly id="305318333" type="building.residential" color="255,230,230" fill="1" layer="-1.00" shape="645.57,680.92 646.06,665.40 631.03,664.91 631.31,681.14 645.57,680.92"/>
    <poly id="305318343" type="building.residential" color="255,230,230" fill="1" layer="-1.00" shape="467.61,646.45 466.15,633.94 453.38,634.49 454.48,647.19 467.61,646.45"/>
    <poly id="305318347" type="building.residential" color="255,230,230" fill="1" layer="-1.00" shape="424.07,653.22 435.17,652.54 434.53,636.31 423.59,636.25 424.07,653.22"/>
    <poly id="305318351" type="building.residential" color="255,230,230" fill="1" layer="-1.00" shape="396.65,679.85 396.14,661.58 384.49,662.66 385.02,681.29 396.65,679.85"/>
    <poly id="305318365" type="building.residential" color="255,230,230" fill="1" layer="-1.00" shape="622.01,680.11 621.07,666.65 605.73,668.01 606.83,680.73 622.01,680.11"/>
    <poly id="305318366" type="building.residential" color="255,230,230" fill="1" layer="-1.00" shape="402.42,654.39 401.85,640.75 380.20,642.10 381.00,657.03 402.42,654.39"/>
    <poly id="305318368" type="building.residential" color="255,230,230" fill="1" layer="-1.00" shape="412.70,768.75 411.28,738.33 402.21,738.59 404.21,769.73 412.70,768.75"/>
    <poly id="305318369" type="building.residential" color="255,230,230" fill="1" layer="-1.00" shape="487.23,665.28 486.50,652.37 474.46,652.90 475.01,665.26 487.23,665.28"/>
    <poly id="305318378" type="building.residential" color="255,230,230" fill="1" layer="-1.00" shape="489.89,687.17 489.36,674.64 468.82,675.77 469.73,688.30 489.89,687.17"/>
    <poly id="305318380" type="building.residential" color="255,230,230" fill="1" layer="-1.00" shape="467.59,737.10 494.22,735.25 492.38,716.09 465.20,718.15 467.59,737.10"/>
    <poly id="305318381" type="building.residential" color="255,230,230" fill="1" layer="-1.00" shape="376.08,771.26 388.47,770.18 387.13,755.63 373.99,756.19 376.08,771.26"/>
    <poly id="305318382" type="building.residential" color="255,230,230" fill="1" layer="-1.00" shape="693.47,677.53 684.80,646.20 676.35,648.67 684.61,678.89 693.47,677.53"/>
    <poly id="305318383" type="building.residential" color="255,230,230" fill="1" layer="-1.00" shape="432.19,736.81 441.06,736.20 439.64,718.69 430.57,719.13 432.19,736.81"/>
    <poly id="305318386" type="building.residential" color="255,230,230" fill="1" layer="-1.00" shape="529.04,643.23 526.97,628.52 514.38,629.25 514.63,644.57 529.04,643.23"/>
    <poly id="305318387" type="building.residential" color="255,230,230" fill="1" layer="-1.00" shape="446.39,669.20 446.01,655.92 424.20,657.65 425.13,670.92 446.39,669.20"/>
    <poly id="305318389" type="building.residential" color="255,230,230" fill="1" layer="-1.00" shape="650.22,655.31 649.64,641.30 628.87,640.96 628.54,655.55 650.22,655.31"/>
    <poly id="305318391" type="building.residential" color="255,230,230" fill="1" layer="-1.00" shape="390.37,739.29 389.83,726.93 368.36,727.73 369.67,741.17 390.37,739.29"/>
    <poly id="305318394" type="building.residential" color="255,230,230" fill="1" layer="-1.00" shape="486.64,644.25 485.93,632.27 474.09,632.97 474.25,645.34 486.64,644.25"/>
    <poly id="305318399" type="building.residential" color="255,230,230" fill="1" layer="-1.00" shape="401.44,730.85 408.82,729.91 408.41,721.97 400.81,722.01 401.44,730.85"/>
    <poly id="305318403" type="building.residential" color="255,230,230" fill="1" layer="-1.00" shape="549.99,643.20 548.62,627.53 536.04,628.27 537.01,643.01 549.99,643.20"/>
    <poly id="305318406" type="building.residential" color="255,230,230" fill="1" layer="-1.00" shape="620.28,658.19 619.00,645.67 601.26,647.28 602.17,659.99 620.28,658.19"/>
    <poly id="305318408" type="building.residential" color="255,230,230" fill="1" layer="-1.00" shape="495.44,667.27 510.43,666.29 509.46,651.72 495.38,651.94 495.44,667.27"/>
    <poly id="305318410" type="building.residential" color="255,230,230" fill="1" layer="-1.00" shape="468.74,666.55 468.42,655.29 455.27,655.48 455.97,667.27 468.74,666.55"/>
    <poly id="305318412" type="building.residential" color="255,230,230" fill="1" layer="-1.00" shape="551.69,683.58 550.95,670.67 533.71,670.43 533.55,684.46 551.69,683.58"/>
    <poly id="305318413" type="building.residential" color="255,230,230" fill="1" layer="-1.00" shape="520.79,705.13 520.27,693.15 500.10,694.27 501.59,707.52 520.79,705.13"/>
    <poly id="305318416" type="building.residential" color="255,230,230" fill="1" layer="-1.00" shape="674.78,678.44 668.88,653.30 656.17,656.25 663.01,681.71 674.78,678.44"/>
    <poly id="305318418" type="building.residential" color="255,230,230" fill="1" layer="-1.00" shape="468.47,768.09 479.36,766.86 478.23,746.59 466.91,745.80 467.40,749.01 468.47,768.09"/>
    <poly id="305318420" type="building.residential" color="255,230,230" fill="1" layer="-1.00" shape="507.71,753.51 520.78,737.26 516.98,733.86 502.54,734.63 503.72,750.11 507.71,753.51"/>
    <poly id="305318421" type="building.residential" color="255,230,230" fill="1" layer="-1.00" shape="553.70,663.03 556.85,656.47 557.04,650.01 540.19,650.49 541.31,663.93 553.70,663.03"/>
    <poly id="305318422" type="building.yes" color="255,230,230" fill="1" layer="-1.00" shape="599.18,639.58 617.66,637.58 617.29,631.13 601.26,627.71 599.25,629.06 599.18,639.58"/>
    <poly id="305318423" type="building.residential" color="255,230,230" fill="1" layer="-1.00" shape="450.65,688.84 450.85,676.28 426.23,677.35 427.60,692.64 449.78,690.71 450.65,688.84"/>
    <poly id="305318424" type="building.residential" color="255,230,230" fill="1" layer="-1.00" shape="459.10,749.46 467.40,749.01 466.91,745.80 467.26,739.42 458.64,739.70 459.10,749.46"/>
    <poly id="305318427" type="building.residential" color="255,230,230" fill="1" layer="-1.00" shape="571.64,674.89 571.17,658.29 563.75,657.94 559.03,668.04 560.31,680.20 564.74,679.88 571.64,674.89"/>
    <poly id="305318428" type="building.residential" color="255,230,230" fill="1" layer="-1.00" shape="569.01,640.99 567.76,629.39 564.05,629.50 564.13,625.44 556.91,625.83 557.94,642.59 569.01,640.99"/>
    <poly id="305318436" type="building.residential" color="255,230,230" fill="1" layer="-1.00" shape="502.68,720.05 500.65,720.11 501.78,727.45 520.45,725.82 520.62,718.62 518.03,718.69 518.26,713.69 502.17,714.89 502.68,720.05"/>
    <poly id="305318438" type="building.residential" color="255,230,230" fill="1" layer="-1.00" shape="459.10,749.46 459.97,762.61 462.37,762.00 462.56,769.00 451.65,769.87 446.98,735.66 458.98,734.39 458.64,739.70 459.10,749.46"/>
    <poly id="305408579" type="building.residential" color="255,230,230" fill="1" layer="-1.00" shape="418.79,476.97 413.22,465.95 408.79,467.46 404.67,458.68 408.01,457.39 405.83,454.29 395.44,458.94 402.53,474.36 401.26,475.00 405.47,483.28 418.79,476.97"/>
    <poly id="305408580" type="building.residential" color="255,230,230" fill="1" layer="-1.00" shape="480.30,440.41 498.01,430.91 497.27,429.54 500.19,427.78 494.30,415.98 485.79,420.27 488.73,426.02 482.57,429.17 479.33,423.72 471.90,427.69 480.30,440.41"/>
    <poly id="305408584" type="building.yes" color="255,230,230" fill="1" layer="-1.00" shape="478.33,514.45 475.24,507.02 473.97,507.75 470.99,500.51 466.36,502.13 467.72,504.46 459.38,508.17 462.90,516.47 465.17,515.82 468.03,522.07 472.74,520.35 471.26,517.22 478.33,514.45"/>
    <poly id="305408585" type="building.yes" color="255,230,230" fill="1" layer="-1.00" shape="513.35,499.51 511.88,496.69 515.90,495.09 510.65,485.04 508.49,485.81 505.88,481.03 486.75,489.39 489.28,494.75 487.42,495.50 492.87,505.44 496.49,503.65 498.65,506.35 513.35,499.51"/>
    <poly id="305408587" type="building.yes" color="255,230,230" fill="1" layer="-1.00" shape="506.18,470.84 496.31,451.52 487.30,455.94 496.28,475.17 506.18,470.84"/>
    <poly id="305408591" type="building.residential" color="255,230,230" fill="1" layer="-1.00" shape="410.74,410.13 402.39,392.17 392.88,396.59 401.53,414.35 410.74,410.13"/>
    <poly id="305408592" type="building.yes" color="255,230,230" fill="1" layer="-1.00" shape="549.02,507.51 543.14,496.00 524.54,505.53 530.82,516.72 549.02,507.51"/>
    <poly id="305408594" type="building.yes" color="255,230,230" fill="1" layer="-1.00" shape="522.74,582.14 537.20,584.50 540.70,564.22 527.23,561.73 522.74,582.14"/>
    <poly id="305408595" type="building.residential" color="255,230,230" fill="1" layer="-1.00" shape="441.75,425.28 433.32,408.01 422.94,413.05 430.08,430.26 441.75,425.28"/>
    <poly id="305408597" type="building.yes" color="255,230,230" fill="1" layer="-1.00" shape="566.17,573.28 573.21,572.70 572.62,562.42 564.57,565.72 566.17,573.28"/>
    <poly id="305408598" type="building.residential" color="255,230,230" fill="1" layer="-1.00" shape="645.59,566.19 640.54,555.95 621.75,558.56 623.08,570.30 645.59,566.19"/>
    <poly id="305408600" type="building.yes" color="255,230,230" fill="1" layer="-1.00" shape="411.08,513.09 404.12,498.65 394.42,503.27 401.29,518.03 411.08,513.09"/>
    <poly id="305408603" type="building.residential" color="255,230,230" fill="1" layer="-1.00" shape="447.98,357.75 446.18,353.84 441.49,356.34 443.57,359.95 447.98,357.75"/>
    <poly id="305408605" type="building.residential" color="255,230,230" fill="1" layer="-1.00" shape="615.49,600.48 618.05,589.33 595.77,584.33 596.61,596.56 615.49,600.48"/>
    <poly id="305408606" type="building.yes" color="255,230,230" fill="1" layer="-1.00" shape="430.51,533.12 440.01,528.80 431.61,512.51 422.40,516.83 430.51,533.12"/>
    <poly id="305408607" type="building.yes" color="255,230,230" fill="1" layer="-1.00" shape="469.70,486.80 461.86,469.32 451.97,474.35 460.00,491.34 469.70,486.80"/>
    <poly id="305408608" type="building.yes" color="255,230,230" fill="1" layer="-1.00" shape="483.59,573.85 488.68,574.69 490.80,565.63 486.12,565.07 483.59,573.85"/>
    <poly id="305408609" type="building.residential" color="255,230,230" fill="1" layer="-1.00" shape="447.98,620.65 446.21,596.57 437.78,597.00 439.27,621.60 447.98,620.65"/>
    <poly id="305408610" type="building.residential" color="255,230,230" fill="1" layer="-1.00" shape="431.35,618.65 429.22,596.56 419.13,597.43 420.24,619.17 431.35,618.65"/>
    <poly id="305408611" type="building.residential" color="255,230,230" fill="1" layer="-1.00" shape="582.57,451.26 576.79,439.95 563.20,447.16 568.98,458.57 582.57,451.26"/>
    <poly id="305408612" type="building.residential" color="255,230,230" fill="1" layer="-1.00" shape="423.15,434.52 416.24,418.59 405.37,423.84 411.95,438.98 423.15,434.52"/>
    <poly id="305408613" type="building.residential" color="255,230,230" fill="1" layer="-1.00" shape="392.35,454.87 402.55,450.42 393.91,432.87 384.30,437.10 392.35,454.87"/>
    <poly id="305408615" type="building.yes" color="255,230,230" fill="1" layer="-1.00" shape="522.74,550.68 525.75,534.28 511.08,531.33 508.07,548.13 522.74,550.68"/>
    <poly id="305408616" type="building.residential" color="255,230,230" fill="1" layer="-1.00" shape="454.29,454.40 443.63,431.96 433.84,436.98 444.40,459.03 454.29,454.40"/>
    <poly id="305408617" type="building.residential" color="255,230,230" fill="1" layer="-1.00" shape="589.14,514.77 583.78,504.44 573.62,510.08 578.97,520.40 589.14,514.77"/>
    <poly id="305408618" type="building.yes" color="255,230,230" fill="1" layer="-1.00" shape="437.93,535.78 435.65,532.18 442.88,528.41 445.69,532.88 437.93,535.78"/>
    <poly id="305408619" type="building.residential" color="255,230,230" fill="1" layer="-1.00" shape="385.25,600.08 386.34,586.20 373.44,586.27 373.25,600.71 385.25,600.08"/>
    <poly id="305408620" type="building.residential" color="255,230,230" fill="1" layer="-1.00" shape="458.43,344.49 451.72,332.21 437.75,340.32 443.94,352.02 458.43,344.49"/>
    <poly id="305408621" type="building.residential" color="255,230,230" fill="1" layer="-1.00" shape="580.10,497.12 571.09,480.28 560.72,485.90 569.43,502.37 580.10,497.12"/>
    <poly id="305408625" type="building.residential" color="255,230,230" fill="1" layer="-1.00" shape="440.02,388.83 454.00,381.11 448.56,371.08 435.16,378.28 440.02,388.83"/>
    <poly id="305408626" type="building.yes" color="255,230,230" fill="1" layer="-1.00" shape="420.64,535.28 414.97,520.79 405.38,526.01 410.02,538.84 420.64,535.28"/>
    <poly id="305408627" type="building.residential" color="255,230,230" fill="1" layer="-1.00" shape="439.88,366.58 431.40,347.34 422.20,352.24 430.76,370.30 439.88,366.58"/>
    <poly id="305408628" type="building.residential" color="255,230,230" fill="1" layer="-1.00" shape="625.77,528.77 619.87,516.68 605.87,523.60 611.68,535.70 625.77,528.77"/>
    <poly id="305408629" type="building.yes" color="255,230,230" fill="1" layer="-1.00" shape="487.92,478.08 479.56,460.01 470.26,464.33 478.61,482.40 487.92,478.08"/>
    <poly id="305408631" type="building.residential" color="255,230,230" fill="1" layer="-1.00" shape="616.44,507.77 609.86,496.28 595.60,504.60 602.09,516.19 616.44,507.77"/>
    <poly id="305408633" type="building.residential" color="255,230,230" fill="1" layer="-1.00" shape="471.24,418.21 465.07,407.50 450.82,416.02 456.87,426.63 471.24,418.21"/>
    <poly id="305408634" type="building.residential" color="255,230,230" fill="1" layer="-1.00" shape="416.77,374.06 407.57,354.54 396.61,359.89 406.08,378.81 416.77,374.06"/>
    <poly id="305408635" type="building.residential" color="255,230,230" fill="1" layer="-1.00" shape="641.97,585.39 640.40,575.44 626.86,577.70 628.24,587.85 641.97,585.39"/>
    <poly id="305408636" type="building.residential" color="255,230,230" fill="1" layer="-1.00" shape="431.02,400.66 423.53,385.14 411.97,390.42 419.66,406.22 431.02,400.66"/>
    <poly id="305408638" type="building.residential" color="255,230,230" fill="1" layer="-1.00" shape="565.22,473.22 557.46,458.60 548.46,463.20 556.72,477.81 565.22,473.22"/>
    <poly id="305408639" type="building.yes" color="255,230,230" fill="1" layer="-1.00" shape="418.01,509.04 427.78,503.42 420.65,490.17 411.07,495.49 418.01,509.04"/>
    <poly id="305408640" type="building.residential" color="255,230,230" fill="1" layer="-1.00" shape="399.03,487.22 389.40,466.33 378.81,471.18 389.51,491.36 399.03,487.22"/>
    <poly id="305408642" type="building.residential" color="255,230,230" fill="1" layer="-1.00" shape="593.39,468.57 587.44,458.14 580.31,462.60 585.96,472.63 593.39,468.57"/>
    <poly id="305408644" type="building.residential" color="255,230,230" fill="1" layer="-1.00" shape="381.72,524.60 375.59,511.63 365.32,516.97 371.82,529.04 381.72,524.60"/>
    <poly id="305408646" type="building.yes" color="255,230,230" fill="1" layer="-1.00" shape="435.88,543.75 437.93,535.78 445.21,537.05 443.34,544.63 435.88,543.75"/>
    <poly id="305408648" type="building.yes" color="255,230,230" fill="1" layer="-1.00" shape="505.27,526.35 505.33,521.50 498.46,520.71 497.70,525.47 505.27,526.35"/>
    <poly id="305408651" type="building.residential" color="255,230,230" fill="1" layer="-1.00" shape="397.91,601.80 396.30,587.30 391.54,587.43 390.58,602.70 397.91,601.80"/>
    <poly id="305408652" type="building.yes" color="255,230,230" fill="1" layer="-1.00" shape="449.33,489.66 442.94,477.87 430.91,484.44 436.80,495.85 449.33,489.66"/>
    <poly id="305408653" type="building.residential" color="255,230,230" fill="1" layer="-1.00" shape="549.57,442.90 540.69,427.32 530.32,432.66 539.00,448.05 549.57,442.90"/>
    <poly id="305408654" type="building.yes" color="255,230,230" fill="1" layer="-1.00" shape="466.76,561.47 468.88,549.14 448.24,545.58 445.39,557.43 466.76,561.47"/>
    <poly id="305408657" type="building.residential" color="255,230,230" fill="1" layer="-1.00" shape="460.59,400.12 454.34,389.80 443.71,396.54 448.28,406.89 460.59,400.12"/>
    <poly id="305408658" type="building.residential" color="255,230,230" fill="1" layer="-1.00" shape="637.94,548.31 631.64,536.13 618.13,542.74 619.61,553.28 637.94,548.31"/>
    <poly id="305408659" type="building.residential" color="255,230,230" fill="1" layer="-1.00" shape="481.36,386.57 475.27,375.16 461.31,383.38 467.28,394.48 481.36,386.57"/>
    <poly id="305408662" type="building.residential" color="255,230,230" fill="1" layer="-1.00" shape="603.89,572.92 602.69,560.09 602.32,556.15 593.91,557.18 594.28,573.68 603.89,572.92"/>
    <poly id="305408663" type="building.residential" color="255,230,230" fill="1" layer="-1.00" shape="508.47,611.12 506.96,610.28 491.89,607.54 492.85,617.11 508.91,615.96 508.47,611.12"/>
    <poly id="305408664" type="building.residential" color="255,230,230" fill="1" layer="-1.00" shape="377.60,400.09 364.42,373.26 359.11,375.10 356.52,378.34 368.19,404.51 377.60,400.09"/>
    <poly id="305408665" type="building.yes" color="255,230,230" fill="1" layer="-1.00" shape="501.85,577.18 514.02,579.32 516.92,561.97 517.50,558.45 506.73,556.88 501.85,577.18"/>
    <poly id="305408667" type="building.yes" color="255,230,230" fill="1" layer="-1.00" shape="516.92,561.97 521.29,562.30 523.17,555.12 518.87,554.05 517.50,558.45 516.92,561.97"/>
    <poly id="305408668" type="building.yes" color="255,230,230" fill="1" layer="-1.00" shape="446.32,520.21 452.90,500.04 451.63,497.21 436.47,505.06 443.57,520.97 446.32,520.21"/>
    <poly id="305408669" type="building.residential" color="255,230,230" fill="1" layer="-1.00" shape="602.69,560.09 611.14,558.97 610.48,549.68 602.25,550.12 602.32,556.15 602.69,560.09"/>
    <poly id="305408675" type="building.yes" color="255,230,230" fill="1" layer="-1.00" shape="493.16,561.41 495.81,549.86 490.34,549.23 489.88,550.62 480.29,548.52 478.21,559.26 493.16,561.41"/>
    <poly id="305408676" type="building.yes" color="255,230,230" fill="1" layer="-1.00" shape="450.86,536.60 454.44,536.69 454.30,538.77 462.16,539.54 463.50,530.50 453.52,528.80 450.86,536.60"/>
    <poly id="305408678" type="building.residential" color="255,230,230" fill="1" layer="-1.00" shape="397.47,379.85 389.88,364.34 379.79,369.17 387.90,388.72 397.19,384.01 395.81,380.88 397.47,379.85"/>
    <poly id="305408679" type="building.yes" color="255,230,230" fill="1" layer="-1.00" shape="561.76,529.69 553.69,514.60 542.24,520.66 545.16,525.52 547.31,524.27 552.87,534.60 561.76,529.69"/>
    <poly id="305408680" type="building.residential" color="255,230,230" fill="1" layer="-1.00" shape="381.23,458.61 383.85,463.42 389.73,460.39 386.35,453.26 383.37,454.46 384.57,457.07 381.23,458.61"/>