<?xml version="1.0" encoding="UTF-8"?>

<!-- generated on Fri Dec  7 16:18:52 2018 by Eclipse SUMO duarouter Version 1.0.1
<configuration xmlns:xsi="http://www.w3.org/2001/XMLSchema-instance" xsi:noNamespaceSchemaLocation="http://sumo.dlr.de/xsd/duarouterConfiguration.xsd">

    <input>
        <net-file value="osm.net.xml"/>
        <route-files value="osm.passenger.trips.xml"/>
    </input>

    <output>
        <output-file value="osm.passenger.rou.xml"/>
        <alternatives-output value="osm.passenger.rou.alt.xml"/>
    </output>

    <time>
        <begin value="0"/>
        <end value="3600.0"/>
    </time>

    <report>
        <no-warnings value="true"/>
        <ignore-errors value="true"/>
        <no-step-log value="true"/>
    </report>

</configuration>
-->

<routes xmlns:xsi="http://www.w3.org/2001/XMLSchema-instance" xsi:noNamespaceSchemaLocation="http://sumo.dlr.de/xsd/routes_file.xsd">
    <vType id="passenger" vClass="passenger"/>
    <vehicle id="veh0" type="passenger" depart="0.00" departLane="best">
        <route edges="236092221#0 236092221#1 236092221#2 236092221#3 24913267#0 24913267#3 4588220#0 168935756#0 168935757#0 -4588222#0 -109902441#1"/>
    </vehicle>
    <vehicle id="veh1" type="passenger" depart="16.27" departLane="best">
        <route edges="-35557161#5 -35557161#4 -35557161#3 -35557161#2 -35557161#1 -35557161#0 -389101365#4 -389101365#2 -35557143#4 196850609#0 196850609#1 196850609#2 194069450#0 194069450#1 461526153 188386313#0 24913304#1 -4402037"/>
    </vehicle>
    <vehicle id="veh2" type="passenger" depart="32.54" departLane="best">
        <route edges="320462164#3 320462163#1 -335462874#2 -326116285#2 -4402014#3 -4402014#2 -326116286#2 -24913267#2 342968607#1 461526152 330840125#0 330840125#1"/>
    </vehicle>
    <vehicle id="veh3" type="passenger" depart="48.81" departLane="best">
        <route edges="4588222#3 -22972473#3 -22972473#2 389101365#0 389101365#3 -4611706#1 -4611706#0 -24242882#2"/>
    </vehicle>
    <vehicle id="veh4" type="passenger" depart="65.08" departLane="best">
        <route edges="-4611708 -35557161#1 -35557161#0 -389101365#4 -389101365#2 -35557143#4 196850609#0 196850609#1 196850609#2 194069450#0 194069450#1 461526153 188386313#0 24913304#1 132600840#0 -132600840#0"/>
    </vehicle>
    <vehicle id="veh5" type="passenger" depart="81.34" departLane="best">
        <route edges="-330840125#1 -330840125#0 -66071373#1 -243854725#3 -24242882#0 171423001#0 171423001#1 171423001#2 42102542#1 196850608#0 196850608#1"/>
    </vehicle>
    <vehicle id="veh6" type="passenger" depart="97.61" departLane="best">
        <route edges="-109902441#2 -109902441#1 -109902441#0 -23755739#4 -23755739#3 -23755739#2 -85255870#2 -335462916 -4401967#2"/>
    </vehicle>
    <vehicle id="veh7" type="passenger" depart="113.88" departLane="best">
        <route edges="236092221#3 24913267#0 24913267#3 4588220#0 292429056#0 42102542#1 196850608#0 196850608#1 196850606#0 4588222#3 22972473#4"/>
    </vehicle>
    <vehicle id="veh8" type="passenger" depart="130.15" departLane="best">
        <route edges="-330840125#1 -330840125#0 -66071373#1 -243854725#3 -24242882#0 194069450#0 194069450#1 461526153 188386313#0 24913304#1 24913304#2 24913304#3 24913304#4 38912785 24240246#1 24240246#2 24240246#3"/>
    </vehicle>
    <vehicle id="veh9" type="passenger" depart="146.42" departLane="best">
        <route edges="43233756#0 43233756#1 -530085630#2 -326116286#2 -24913267#2 -155186522 24913304#1 24913304#2 24913304#3 24913304#4 -108031933#2"/>
    </vehicle>
    <vehicle id="veh10" type="passenger" depart="162.69" departLane="best">
        <route edges="424323348 24240246#1 24240246#2 24240246#3 236092221#0 236092221#1 236092221#2 236092221#3 24913267#0 24913267#3 4588220#0 -43233756#3 -43233756#0 -23755739#4 -23755739#3 -23755739#2 85255869#0 335462921#0"/>
    </vehicle>
    <vehicle id="veh11" type="passenger" depart="178.96" departLane="best">
        <route edges="-4588217#5 -4588217#2 -4588217#1 -4588217#0 171423001#0 171423001#1 171423001#2 35557143#1 389101365#0 389101365#3 35557161#0 -35557161#0"/>
    </vehicle>
    <vehicle id="veh12" type="passenger" depart="195.23" departLane="best">
        <route edges="-196850606#0 196850607#1 196850607#2 -42102542#2 -292429056#3 -530085630#2 -326116286#2 -24913267#2"/>
    </vehicle>
    <vehicle id="veh13" type="passenger" depart="211.50" departLane="best">
        <route edges="43233756#0 43233756#1 -530085630#2 -326116286#2 -24913267#2 342968607#1"/>
    </vehicle>
    <vehicle id="veh14" type="passenger" depart="227.77" departLane="best">
        <route edges="131577612#0 320462164#2 320462164#3 320462163#1 4401967#0 335462916 85255870#0 23755739#0 23755739#3 23755739#4 43233756#0 43233756#1 292429056#0 196850609#0 196850609#1 196850609#2 24242882#0 24242882#1 24242882#2 68647306#1 68647306#2"/>
    </vehicle>
    <vehicle id="veh15" type="passenger" depart="244.03" departLane="best">
        <route edges="-4597324#0 533509622#2 533509622#3 23755739#0 23755739#3 23755739#4 43233756#0 43233756#1 -530085630#2 -326116286#2 -24913267#2 -155186522 24913304#1 24913304#2 24913304#3 24913304#4 38912785 24240246#1 24240246#2 24240246#3 236092221#0"/>
    </vehicle>
    <vehicle id="veh16" type="passenger" depart="260.30" departLane="best">
        <route edges="4588219#0 -168935756#2 -530085630#2 -326116286#2 -24913267#2 -155186522 24913304#1 24913304#2 24913304#3 24913304#4 24240245#1"/>
    </vehicle>
    <vehicle id="veh17" type="passenger" depart="276.57" departLane="best">
        <route edges="-335462916 335462916 85255870#0 23755739#0 23755739#3 23755739#4 43233756#0 43233756#1 292429056#0 35557143#1 389101365#0 389101365#3 -4611706#1"/>
    </vehicle>
    <vehicle id="veh18" type="passenger" depart="292.84" departLane="best">
        <route edges="-168935757#2 -168935757#0 -168935756#2 -530085630#2 -4588217#5 -4588217#2 -4588217#1"/>
    </vehicle>
    <vehicle id="veh19" type="passenger" depart="309.11" departLane="best">
        <route edges="-196850606#5 -196850606#0 196850607#1 196850607#2 -42102542#2 -292429056#3 -43233756#3 -43233756#0 -23755739#4 -23755739#3 -23755739#2 -533509622#3 -533509622#2 4597324#0 -4597324#0"/>
    </vehicle>
    <vehicle id="veh20" type="passenger" depart="325.38" departLane="best">
        <route edges="22972473#3 -4588222#3 -196850606#0 196850607#1 196850607#2 -42102542#2 -292429056#3 -43233756#3 -43233756#0 109902441#0"/>
    </vehicle>
    <vehicle id="veh21" type="passenger" depart="341.65" departLane="best">
        <route edges="-4588222#2 -4588222#1 -168935757#0 -168935756#2 -530085630#2 -326116286#2 -24913267#2 -155186522 24913304#1 -4402037"/>
    </vehicle>
    <vehicle id="veh22" type="passenger" depart="357.92" departLane="best">
        <route edges="-35557161#3 -35557161#2 -35557161#1 -35557161#0 -389101365#4 -389101365#2 -35557143#4 -292429056#3 -43233756#3 -43233756#0 -23755739#4 -23755739#3 -23755739#2 -533509622#3 533509622#3"/>
    </vehicle>
    <vehicle id="veh23" type="passenger" depart="374.19" departLane="best">
        <route edges="236092221#2 236092221#3 342968607#1 -194069450#1 -194069450#0 24242882#0 243854725#3"/>
    </vehicle>
    <vehicle id="veh24" type="passenger" depart="390.46" departLane="best">
        <route edges="-24242882#2 -24242882#1 -24242882#0 171423001#0 171423001#1 171423001#2 -292429056#3 168935756#0 168935757#0 -4588222#0 109902441#2"/>
    </vehicle>
    <vehicle id="veh26" type="passenger" depart="422.99" departLane="best">
        <route edges="132600840#1 236092221#2 236092221#3 24913267#0 24913267#3 4588220#0 -43233756#3 -43233756#0 -23755739#4 -23755739#3 -23755739#2 85255869#0 335462921#0"/>
    </vehicle>
    <vehicle id="veh27" type="passenger" depart="439.26" departLane="best">
        <route edges="4402037 132600840#0 132600840#1 236092221#2 236092221#3 24913267#0 24913267#3 4588220#0 292429056#0 35557143#1 389101365#0"/>
    </vehicle>
    <vehicle id="veh28" type="passenger" depart="455.53" departLane="best">
        <route edges="-330840125#1 -330840125#0 -66071373#1 -243854725#3 -243854725#2 389101365#0 389101365#3 66071366#0"/>
    </vehicle>
    <vehicle id="veh29" type="passenger" depart="471.80" departLane="best">
        <route edges="4588219#3 -4588219#3 196850607#1 196850607#2 -42102542#2 -292429056#3 -43233756#3 -43233756#0 -47935842"/>
    </vehicle>
    <vehicle id="veh30" type="passenger" depart="488.07" departLane="best">
        <route edges="23755739#0 23755739#3 23755739#4 43233756#0 43233756#1 -530085630#2 -326116286#2 -24913267#2 -155186522 24913304#1 132600840#0 132600840#1"/>
    </vehicle>
    <vehicle id="veh31" type="passenger" depart="504.34" departLane="best">
        <route edges="4611706#1 -389101365#4 -389101365#2 -35557143#4 196850609#0 196850609#1 196850609#2 194069450#0 194069450#1 461526153 188386313#0"/>
    </vehicle>
    <vehicle id="veh32" type="passenger" depart="520.61" departLane="best">
        <route edges="-35557161#2 -35557161#1 -35557161#0 -389101365#4 -389101365#2 -35557143#4 42102542#1 196850608#0 196850608#1 -4588219#2 -4588219#1"/>
    </vehicle>
    <vehicle id="veh33" type="passenger" depart="536.88" departLane="best">
        <route edges="155186522 24913267#0 24913267#3 4588220#0 168935756#0 168935757#0 4588222#1 -4588222#1"/>
    </vehicle>
    <vehicle id="veh34" type="passenger" depart="553.15" departLane="best">
        <route edges="188386313#0 155186522 342968607#1 -194069450#1 -194069450#0 171423001#0 171423001#1 171423001#2 35557143#1 389101365#0 389101365#3 35557161#0 35557161#1 4611708"/>
    </vehicle>
    <vehicle id="veh35" type="passenger" depart="569.41" departLane="best">
        <route edges="-4597324#2 -4597324#1 -4597324#0 533509622#2 533509622#3 23755739#0 23755739#3 23755739#4 43233756#0 43233756#1 -530085630#2 -326116286#2 -24913267#2 -155186522 24913304#1 -4402037"/>
    </vehicle>
    <vehicle id="veh36" type="passenger" depart="585.68" departLane="best">
        <route edges="85255870#0 23755739#0 23755739#3 23755739#4 43233756#0 43233756#1 292429056#0 196850609#0"/>
    </vehicle>
    <vehicle id="veh37" type="passenger" depart="601.95" departLane="best">
        <route edges="-196850606#5 -196850606#0 196850607#1 196850607#2 -42102542#2 -292429056#3 -530085630#2 -326116286#2 -24913267#2 -155186522 24913304#1 24913304#2 24913304#3"/>
    </vehicle>
    <vehicle id="veh38" type="passenger" depart="618.22" departLane="best">
        <route edges="389101365#3 -389101365#4 -389101365#2 -35557143#4 -292429056#3 168935756#0"/>
    </vehicle>
    <vehicle id="veh39" type="passenger" depart="634.49" departLane="best">
        <route edges="85255869#0 -85255869#2 23755739#0 23755739#3 23755739#4 43233756#0 43233756#1 292429056#0 42102542#1 196850608#0 196850608#1 4588219#3 22972473#3"/>
    </vehicle>
    <vehicle id="veh40" type="passenger" depart="650.76" departLane="best">
        <route edges="-109902441#2 4588222#0 -168935757#0 -168935756#2 292429056#0 196850609#0 196850609#1 196850609#2 194069450#0 194069450#1 461526152 340498982#0 340498982#1 340498982#3"/>
    </vehicle>
    <vehicle id="veh41" type="passenger" depart="667.03" departLane="best">
        <route edges="24242882#0 -243854725#2 22972473#0 22972473#3 22972473#4"/>
    </vehicle>
    <vehicle id="veh42" type="passenger" depart="683.30" departLane="best">
        <route edges="-35557161#3 -35557161#2 -35557161#1 -35557161#0 -389101365#4 -389101365#2 -35557143#4 -292429056#3 -43233756#3 -43233756#0 -23755739#4 -23755739#3 -23755739#2 -85255870#2 -335462916 -4401967#2 -320462163#3 -320462163#0 -320462164#2 320462164#2"/>
    </vehicle>
    <vehicle id="veh43" type="passenger" depart="699.57" departLane="best">
        <route edges="-461526153 -194069450#1 -194069450#0 171423001#0 171423001#1 171423001#2 35557143#1 389101365#0 389101365#3 66071366#0 66071366#1"/>
    </vehicle>
    <vehicle id="veh44" type="passenger" depart="715.84" departLane="best">
        <route edges="-85255869#2 23755739#0 23755739#3 23755739#4 43233756#0 43233756#1 292429056#0 35557143#1 389101365#0 389101365#3 -389101365#4"/>
    </vehicle>
    <vehicle id="veh45" type="passenger" depart="732.10" departLane="best">
        <route edges="4611706#1 -389101365#4 -389101365#2 -35557143#4 -292429056#3 -43233756#3 -43233756#0 -23755739#4 -23755739#3 -23755739#2 -533509622#3 -533509622#2 4597324#0 4597324#1"/>
    </vehicle>
    <vehicle id="veh46" type="passenger" depart="748.37" departLane="best">
        <route edges="-389101365#4 -389101365#2 -35557143#4 -292429056#3 -43233756#3 -43233756#0 -23755739#4 -23755739#3 -23755739#2 -85255870#2 -335462916 -4401967#2 -320462163#3 320462163#1"/>
    </vehicle>
    <vehicle id="veh47" type="passenger" depart="764.64" departLane="best">
        <route edges="342968607#1 -194069450#1 -194069450#0 171423001#0 171423001#1 171423001#2 42102542#1 196850608#0 196850608#1 196850606#0 4588222#3 22972473#4"/>
    </vehicle>
    <vehicle id="veh48" type="passenger" depart="780.91" departLane="best">
        <route edges="-109902441#0 -23755739#4 -23755739#3 -23755739#2 -533509622#3 -533509622#2 -533509622#1"/>
    </vehicle>
    <vehicle id="veh49" type="passenger" depart="797.18" departLane="best">
        <route edges="4588220#0 292429056#0 35557143#1 389101365#0 389101365#3 66071366#0 66071366#1"/>
    </vehicle>
    <vehicle id="veh50" type="passenger" depart="813.45" departLane="best">
        <route edges="-194069450#0 171423001#0 171423001#1 171423001#2 42102542#1 196850608#0 196850608#1 196850606#0 196850606#1"/>
    </vehicle>
    <vehicle id="veh51" type="passenger" depart="829.72" departLane="best">
        <route edges="-168935757#2 -168935757#0 -168935756#2 292429056#0 35557143#1 389101365#0 389101365#3 35557161#0 35557161#1 35557161#2 35557161#3 35557161#4 35557161#5"/>
    </vehicle>
    <vehicle id="veh52" type="passenger" depart="845.99" departLane="best">
        <route edges="35557143#1 -35557143#4 -292429056#3 -43233756#3 -43233756#0 -23755739#4 -23755739#3 -23755739#2 -85255870#2 -335462916 -4401967#2 -320462163#3 -320462163#0 -320462164#2 -320462164#0"/>
    </vehicle>
    <vehicle id="veh53" type="passenger" depart="862.26" departLane="best">
        <route edges="-66071366#1 -66071366#0 -389101365#4 -389101365#2 -35557143#4 196850609#0 196850609#1 196850609#2 194069450#0 194069450#1 461526153 188386313#0 24913304#1 24913304#2 24913304#3 24913304#4 38912785 24240246#1 24240246#2 24240246#3 236092221#0"/>
    </vehicle>
    <vehicle id="veh54" type="passenger" depart="878.52" departLane="best">
        <route edges="-35557161#2 -35557161#1 -35557161#0 -389101365#4 -389101365#2 -35557143#4 -292429056#3 -43233756#3 -43233756#0 -23755739#4 -23755739#3 -23755739#2 -533509622#3 -533509622#2 4597324#0 4597324#1 4597324#2"/>
    </vehicle>
    <vehicle id="veh55" type="passenger" depart="894.79" departLane="best">
        <route edges="-4611708 -35557161#1 -35557161#0 -389101365#4 -389101365#2 -35557143#4 196850609#0 196850609#1 196850609#2 194069450#0 194069450#1 461526153 188386313#0 24913304#1 -4402037"/>
    </vehicle>
    <vehicle id="veh56" type="passenger" depart="911.06" departLane="best">
        <route edges="131577612#0 320462164#2 320462164#3 320462163#1 -335462874#2 -326116285#2 -4402014#3 -4402014#2 -326116286#2 -24913267#2 342968607#1"/>
    </vehicle>
    <vehicle id="veh57" type="passenger" depart="927.33" departLane="best">
        <route edges="-330840125#0 -66071373#1 -243854725#3 -243854725#2 389101365#0 389101365#3 35557161#0 35557161#1 35557161#2 35557161#3 -4611710#1"/>
    </vehicle>
    <vehicle id="veh58" type="passenger" depart="943.60" departLane="best">
        <route edges="-22972473#3 -4588219#3 196850607#1 196850607#2 -42102542#2 -292429056#3 -530085630#2 -326116286#2 -24913267#2 -155186522 24913304#1 -4402037"/>
    </vehicle>
    <vehicle id="veh59" type="passenger" depart="959.87" departLane="best">
        <route edges="-4588217#2 4588217#2 4588217#3 -326116286#2 -24913267#2 -155186522 24913304#1 24913304#2 24913304#3 24913304#4 38912785 24240246#1 24240246#2 24240246#3"/>
    </vehicle>
    <vehicle id="veh60" type="passenger" depart="976.14" departLane="best">
        <route edges="-335462916 -4401967#2 -335462874#2 -326116285#2 -4402014#3 -4402014#2 -326116286#2 -24913267#2 -155186522 24913304#1 -4402037"/>
    </vehicle>
    <vehicle id="veh61" type="passenger" depart="992.41" departLane="best">
        <route edges="-168935757#2 -168935757#0 -168935756#2 -530085630#2 -326116286#2 -24913267#2 -155186522 24913304#1 24913304#2 24913304#3 24913304#4"/>
    </vehicle>
    <vehicle id="veh62" type="passenger" depart="1008.68" departLane="best">
        <route edges="-335462916 335462916 85255870#0 23755739#0 23755739#3 23755739#4 43233756#0 43233756#1 292429056#0 35557143#1 389101365#0 389101365#3 35557161#0 35557161#1 4611708"/>
    </vehicle>
    <vehicle id="veh63" type="passenger" depart="1024.95" departLane="best">
        <route edges="4588217#3 4588220#0 -43233756#3 -43233756#0 -23755739#4 -23755739#3"/>
    </vehicle>
    <vehicle id="veh64" type="passenger" depart="1041.21" departLane="best">
        <route edges="-335462921#5 -85255869#2 23755739#0 23755739#3 23755739#4 43233756#0 43233756#1 292429056#0 196850609#0 196850609#1 196850609#2 194069450#0 194069450#1 461526152 330840125#0 330840125#1"/>
    </vehicle>
    <vehicle id="veh65" type="passenger" depart="1057.48" departLane="best">
        <route edges="-330840125#1 -330840125#0 -66071373#1 -243854725#3 -24242882#0 4588217#0 4588217#1 4588217#2 4588217#3 4402014#0 4402014#3 326116285#2 326116285#3 -320462163#3 -320462163#0 -320462164#2"/>
    </vehicle>
    <vehicle id="veh66" type="passenger" depart="1073.75" departLane="best">
        <route edges="4611710#1 -35557161#3 -35557161#2 -35557161#1 -35557161#0 -389101365#4 -389101365#2 -35557143#4 -292429056#3 -43233756#3 -43233756#0 -23755739#4 -23755739#3 23755739#3"/>
    </vehicle>
    <vehicle id="veh67" type="passenger" depart="1090.02" departLane="best">
        <route edges="-66071366#0 -389101365#4 -389101365#2 -35557143#4 42102542#1"/>
    </vehicle>
    <vehicle id="veh68" type="passenger" depart="1106.29" departLane="best">
        <route edges="-4611708 -35557161#1 -35557161#0 -389101365#4 -389101365#2 -35557143#4 196850609#0 196850609#1 196850609#2 194069450#0 194069450#1"/>
    </vehicle>
    <vehicle id="veh69" type="passenger" depart="1122.56" departLane="best">
        <route edges="320462163#1 -335462874#2 -326116285#2 -4402014#3 -4402014#2 -326116286#2 -24913267#2 342968607#1 461526152 330840125#0 330840125#1"/>
    </vehicle>
    <vehicle id="veh70" type="passenger" depart="1138.83" departLane="best">
        <route edges="66071373#1 -66071373#1 -243854725#3 -24242882#0 4588217#0 4588217#1 4588217#2 4588217#3 -326116286#2 -24913267#2"/>
    </vehicle>
    <vehicle id="veh71" type="passenger" depart="1155.10" departLane="best">
        <route edges="-4597324#2 -4597324#1 -4597324#0 -533509622#1"/>
    </vehicle>
    <vehicle id="veh72" type="passenger" depart="1171.37" departLane="best">
        <route edges="-320462164#2 320462164#2 320462164#3 320462163#1 4401967#0 335462916 85255870#0 23755739#0 23755739#3 23755739#4 43233756#0 43233756#1 292429056#0 196850609#0 196850609#1 196850609#2 171423001#0"/>
    </vehicle>
    <vehicle id="veh73" type="passenger" depart="1187.64" departLane="best">
        <route edges="-4611708 -35557161#1 -35557161#0 -389101365#4 -389101365#2 -35557143#4 -292429056#3 -43233756#3 -43233756#0 -23755739#4 -23755739#3 -23755739#2 -533509622#3 -533509622#2 4597324#0 -4597324#0"/>
    </vehicle>
    <vehicle id="veh74" type="passenger" depart="1203.90" departLane="best">
        <route edges="-335462921#5 -85255869#2 23755739#0 23755739#3 23755739#4 43233756#0 43233756#1 292429056#0 196850609#0 196850609#1 196850609#2 194069450#0 194069450#1 461526152"/>
    </vehicle>
    <vehicle id="veh75" type="passenger" depart="1220.17" departLane="best">
        <route edges="-461526153 461526153 188386313#0 155186522 24913267#0 24913267#3 4402014#0 4402014#3 326116285#2 326116285#3 -320462163#3 -320462163#0 -320462164#2 4597320#1"/>
    </vehicle>
    <vehicle id="veh76" type="passenger" depart="1236.44" departLane="best">
        <route edges="131577612#0 320462164#2 320462164#3 320462163#1 -335462874#2 -326116285#2 -4402014#3 -4402014#2 -326116286#2 -24913267#2 342968607#1 -194069450#1"/>
    </vehicle>
    <vehicle id="veh77" type="passenger" depart="1252.71" departLane="best">
        <route edges="85255870#0 23755739#0 23755739#3 23755739#4 43233756#0 43233756#1 168935756#0 4588219#1 4588219#2"/>
    </vehicle>
    <vehicle id="veh78" type="passenger" depart="1268.98" departLane="best">
        <route edges="533509622#0 533509622#2 533509622#3 23755739#0 23755739#3 23755739#4 43233756#0 43233756#1 292429056#0 196850609#0 196850609#1 196850609#2 194069450#0 194069450#1 461526153"/>
    </vehicle>
    <vehicle id="veh79" type="passenger" depart="1285.25" departLane="best">
        <route edges="4588217#0 -4588217#0 171423001#0 171423001#1 171423001#2 35557143#1 389101365#0 389101365#3 35557161#0 35557161#1 35557161#2 -35557161#2"/>
    </vehicle>
    <vehicle id="veh80" type="passenger" depart="1301.52" departLane="best">
        <route edges="-66071366#1 -66071366#0 -389101365#4 -389101365#2 -35557143#4 196850609#0 196850609#1 196850609#2 194069450#0 194069450#1 461526153 188386313#0 24913304#1 -4402037"/>
    </vehicle>
    <vehicle id="veh81" type="passenger" depart="1317.79" departLane="best">
        <route edges="-4597324#2 -4597324#1 -4597324#0 533509622#2 533509622#3 23755739#0 23755739#3 23755739#4 43233756#0 43233756#1 292429056#0 42102542#1 196850608#0 196850608#1 4588219#3 -22972473#2"/>
    </vehicle>
    <vehicle id="veh82" type="passenger" depart="1334.06" departLane="best">
        <route edges="-4597324#0 533509622#2 533509622#3 23755739#0 23755739#3 23755739#4 43233756#0 43233756#1 292429056#0 196850609#0 196850609#1 196850609#2 24242882#0 24242882#1 24242882#2 68647306#1 68647306#2 68647306#3"/>
    </vehicle>
    <vehicle id="veh83" type="passenger" depart="1350.33" departLane="best">
        <route edges="-35557161#2 -35557161#1 -35557161#0 -389101365#4 -389101365#2 -35557143#4 196850609#0 196850609#1 196850609#2 194069450#0 194069450#1 461526153 188386313#0 24913304#1 24913304#2 24913304#3 24913304#4 38912785"/>
    </vehicle>
    <vehicle id="veh84" type="passenger" depart="1366.59" departLane="best">
        <route edges="-461526153 -194069450#1 -194069450#0 171423001#0 171423001#1 171423001#2 -292429056#3 168935756#0"/>
    </vehicle>
    <vehicle id="veh85" type="passenger" depart="1382.86" departLane="best">
        <route edges="533509622#0 533509622#2 533509622#3 85255869#0"/>
    </vehicle>
    <vehicle id="veh86" type="passenger" depart="1399.13" departLane="best">
        <route edges="132600840#0 132600840#1 236092221#2 236092221#3 342968607#1 461526152 340498982#0 340498982#1 340498982#3"/>
    </vehicle>
    <vehicle id="veh87" type="passenger" depart="1415.40" departLane="best">
        <route edges="-24242882#0 171423001#0 171423001#1 171423001#2 35557143#1 389101365#0 389101365#3 35557161#0 35557161#1 35557161#2 35557161#3 -4611710#1 -4611710#0"/>
    </vehicle>
    <vehicle id="veh88" type="passenger" depart="1431.67" departLane="best">
        <route edges="533509622#0 533509622#2 533509622#3 23755739#0 23755739#3 23755739#4 43233756#0 43233756#1 -530085630#2 -326116286#2 -24913267#2 -155186522 24913304#1 24913304#2 24913304#3 24913304#4 24240245#1"/>
    </vehicle>
    <vehicle id="veh89" type="passenger" depart="1447.94" departLane="best">
        <route edges="131577612#0 320462164#2 320462164#3 320462163#1 4401967#0 335462916 85255870#0 23755739#0 23755739#3 23755739#4 43233756#0 43233756#1 292429056#0 35557143#1 389101365#0 389101365#3 35557161#0 35557161#1 35557161#2 35557161#3"/>
    </vehicle>
    <vehicle id="veh90" type="passenger" depart="1464.21" departLane="best">
        <route edges="-85255870#2 85255870#0 23755739#0 23755739#3 23755739#4 43233756#0 43233756#1 168935756#0 168935757#0 4588222#1 4588222#2"/>
    </vehicle>
    <vehicle id="veh91" type="passenger" depart="1480.48" departLane="best">
        <route edges="-24242882#0 171423001#0 171423001#1 171423001#2 35557143#1 389101365#0 389101365#3 66071366#0 66071366#1"/>
    </vehicle>
    <vehicle id="veh92" type="passenger" depart="1496.75" departLane="best">
        <route edges="-168935757#2 -168935757#0 4588219#1 4588219#2 196850607#1 196850607#2 -42102542#2"/>
    </vehicle>
    <vehicle id="veh93" type="passenger" depart="1513.02" departLane="best">
        <route edges="196850606#0 -196850606#0 196850607#1 196850607#2 -42102542#2 196850609#0 196850609#1 196850609#2 194069450#0 194069450#1 461526152 330840125#0 330840125#1"/>
    </vehicle>
    <vehicle id="veh94" type="passenger" depart="1529.28" departLane="best">
        <route edges="-335462921#5 -85255869#2 -85255870#2 -335462916 -4401967#2 -320462163#3 -320462163#0 -320462164#2 -320462164#0"/>
    </vehicle>
    <vehicle id="veh95" type="passenger" depart="1545.55" departLane="best">
        <route edges="194069450#1 461526153 188386313#0 24913304#1"/>
    </vehicle>
    <vehicle id="veh96" type="passenger" depart="1561.82" departLane="best">
        <route edges="-4611708 -35557161#1 -35557161#0 -389101365#4 -389101365#2 -35557143#4 196850609#0 196850609#1 196850609#2 194069450#0 194069450#1 461526153 188386313#0 24913304#1 24913304#2 24913304#3 24913304#4 38912785 24240246#1 24240246#2"/>
    </vehicle>
    <vehicle id="veh97" type="passenger" depart="1578.09" departLane="best">
        <route edges="108031933#0 38912785 24240246#1 24240246#2 24240246#3 236092221#0 236092221#1 236092221#2 236092221#3 24913267#0 24913267#3 4588220#0 -43233756#3 -43233756#0 -23755739#4 -23755739#3 -23755739#2 -533509622#3 -533509622#2 533509622#2"/>
    </vehicle>
    <vehicle id="veh98" type="passenger" depart="1594.36" departLane="best">
        <route edges="-330840125#0 340498982#0 340498982#1 340498982#3"/>
    </vehicle>
    <vehicle id="veh99" type="passenger" depart="1610.63" departLane="best">
        <route edges="-335462921#5 -85255869#2 23755739#0 23755739#3 23755739#4 43233756#0 43233756#1 -530085630#2 -326116286#2 -24913267#2 -155186522 24913304#1 132600840#0 132600840#1"/>
    </vehicle>
    <vehicle id="veh100" type="passenger" depart="1626.90" departLane="best">
        <route edges="24240246#1 24240246#2 24240246#3 236092221#0 236092221#1 236092221#2 236092221#3 24913267#0 24913267#3 4588220#0 292429056#0 35557143#1 389101365#0 389101365#3 35557161#0 35557161#1 35557161#2 35557161#3 -4611710#1 -4611710#0"/>
    </vehicle>
    <vehicle id="veh101" type="passenger" depart="1643.17" departLane="best">
        <route edges="-43233756#3 43233756#1 292429056#0 35557143#1 389101365#0 389101365#3 35557161#0 35557161#1 35557161#2 35557161#3 35557161#4"/>
    </vehicle>
    <vehicle id="veh102" type="passenger" depart="1659.44" departLane="best">
        <route edges="-168935757#2 -168935757#0 -168935756#2 292429056#0 196850609#0 196850609#1 196850609#2 171423001#0 171423001#1 171423001#2"/>
    </vehicle>
    <vehicle id="veh103" type="passenger" depart="1675.70" departLane="best">
        <route edges="-168935757#2 -168935757#0 -168935756#2 -530085630#2 -326116286#2 -24913267#2 -155186522 24913304#1 -4402037"/>
    </vehicle>
    <vehicle id="veh104" type="passenger" depart="1691.97" departLane="best">
        <route edges="-35557161#2 -35557161#1 -35557161#0 -389101365#4 -389101365#2 -35557143#4 -292429056#3 -43233756#3 -43233756#0 -23755739#4 -23755739#3 -23755739#2 -533509622#3 -533509622#2 533509622#2"/>
    </vehicle>
    <vehicle id="veh105" type="passenger" depart="1708.24" departLane="best">
        <route edges="4588222#0 -168935757#0 -168935756#2 -43233756#3 -43233756#0 -23755739#4 -23755739#3 -23755739#2 -533509622#3 -533509622#2 4597324#0 4597324#1 4597324#2"/>
    </vehicle>
    <vehicle id="veh106" type="passenger" depart="1724.51" departLane="best">
        <route edges="-4588222#2 4588222#2 -196850606#0 196850607#1 196850607#2 -42102542#2 35557143#1 389101365#0 389101365#3 35557161#0 -35557161#0"/>
    </vehicle>
    <vehicle id="veh107" type="passenger" depart="1740.78" departLane="best">
        <route edges="4402037 132600840#0 132600840#1 236092221#2 236092221#3 342968607#1 461526152 340498982#0"/>
    </vehicle>
    <vehicle id="veh108" type="passenger" depart="1757.05" departLane="best">
        <route edges="196850608#1 196850607#1 196850607#2 -42102542#2 196850609#0 196850609#1 196850609#2 24242882#0 24242882#1 24242882#2 68647306#1 68647306#2 68647306#3"/>
    </vehicle>
    <vehicle id="veh109" type="passenger" depart="1773.32" departLane="best">
        <route edges="23755739#0 23755739#3 23755739#4 43233756#0 43233756#1 -530085630#2 -326116286#2 -24913267#2 -155186522 24913304#1 24913304#2 24913304#3 24913304#4 -108031933#2"/>
    </vehicle>
    <vehicle id="veh110" type="passenger" depart="1789.59" departLane="best">
        <route edges="4401967#0 335462916 85255870#0 23755739#0 23755739#3 23755739#4 43233756#0 43233756#1 292429056#0 35557143#1 389101365#0 389101365#3 35557161#0 35557161#1 35557161#2 35557161#3 -4611710#1 -4611710#0"/>
    </vehicle>
    <vehicle id="veh111" type="passenger" depart="1805.86" departLane="best">
        <route edges="-22972473#4 -4588222#3 -196850606#0 196850607#1 196850607#2 -42102542#2 -292429056#3 -43233756#3 -43233756#0 -23755739#4 -23755739#3 -23755739#2 -85255870#2 -335462916 -4401967#2 -320462163#3 -320462163#0 -320462164#2 -320462164#0"/>
    </vehicle>
    <vehicle id="veh112" type="passenger" depart="1822.13" departLane="best">