<?xml version="1.0" encoding="UTF-8"?>
<!-- generated on 2019-01-11 13:27:14.940981 by $Id: randomTrips.py 23999 2017-04-21 09:04:47Z behrisch $
  options: -n ../maps/LA/LA.net.xml -d 25 -o ../maps/LA/LA-25.trips.xml
-->
<routes xmlns:xsi="http://www.w3.org/2001/XMLSchema-instance" xsi:noNamespaceSchemaLocation="http://sumo.dlr.de/xsd/routes_file.xsd">
	<vType id="car" accel="0.8" decel="4.5" sigma="0.5" length="4" maxSpeed="50"/>

	<trip id="0" depart="0.00" departPos="93" from="-13445352#3" to="-13445352#3" type="car"/>
	<trip id="1" depart="0.00" departPos="118" from="-13445352#3" to="-13445352#3" type="car"/>
	<trip id="2" depart="0.00" departPos="143" from="-13445352#3" to="-13445352#3" type="car"/>
	<trip id="3" depart="0.00" departPos="168" from="-13445352#3" to="-13445352#3" type="car"/>
	<trip id="4" depart="0.00" departPos="6" from="13350730#1" to="13350730#1" type="car"/>
	<trip id="5" depart="0.00" departPos="31" from="13350730#1" to="13350730#1" type="car"/>
	<trip id="6" depart="0.00" departPos="56" from="13350730#1" to="13350730#1" type="car"/>
	<trip id="7" depart="0.00" departPos="81" from="13350730#1" to="13350730#1" type="car"/>
	<trip id="8" depart="0.00" departPos="43" from="122050710#1" to="122050710#1" type="car"/>
	<trip id="9" depart="0.00" departPos="68" from="122050710#1" to="122050710#1" type="car"/>
	<trip id="10" depart="0.00" departPos="94" from="13445352#4" to="13445352#4" type="car"/>
	<trip id="11" depart="0.00" departPos="119" from="13445352#4" to="13445352#4" type="car"/>
	<trip id="12" depart="0.00" departPos="144" from="13445352#4" to="13445352#4" type="car"/>
	<trip id="13" depart="0.00" departPos="169" from="13445352#4" to="13445352#4" type="car"/>
	<trip id="14" depart="0.00" departPos="6" from="13401968#1" to="13401968#1" type="car"/>
	<trip id="15" depart="0.00" departPos="31" from="13401968#1" to="13401968#1" type="car"/>
	<trip id="16" depart="0.00" departPos="56" from="13401968#1" to="13401968#1" type="car"/>
	<trip id="17" depart="0.00" departPos="81" from="13401968#1" to="13401968#1" type="car"/>
	<trip id="18" depart="0.00" departPos="18" from="13386030#5" to="13386030#5" type="car"/>
	<trip id="19" depart="0.00" departPos="43" from="13386030#5" to="13386030#5" type="car"/>
	<trip id="20" depart="0.00" departPos="68" from="13386030#5" to="13386030#5" type="car"/>
	<trip id="21" depart="0.00" departPos="93" from="13386030#5" to="13386030#5" type="car"/>
	<trip id="22" depart="0.00" departPos="118" from="13386030#5" to="13386030#5" type="car"/>
	<trip id="23" depart="0.00" departPos="143" from="13386030#5" to="13386030#5" type="car"/>
	<trip id="24" depart="0.00" departPos="168" from="13386030#5" to="13386030#5" type="car"/>
	<trip id="25" depart="0.00" departPos="6" from="13386030#6" to="13386030#6" type="car"/>
	<trip id="26" depart="0.00" departPos="31" from="13386030#6" to="13386030#6" type="car"/>
	<trip id="27" depart="0.00" departPos="17" from="13386030#7" to="13386030#7" type="car"/>
	<trip id="28" depart="0.00" departPos="11" from="398339748" to="398339748" type="car"/>
	<trip id="29" depart="0.00" departPos="13" from="-398339746" to="-398339746" type="car"/>
	<trip id="30" depart="0.00" departPos="12" from="-398339747" to="-398339747" type="car"/>
	<trip id="31" depart="0.00" departPos="37" from="-398339747" to="-398339747" type="car"/>
	<trip id="32" depart="0.00" departPos="62" from="-398339747" to="-398339747" type="car"/>
	<trip id="33" depart="0.00" departPos="44" from="13401968#2" to="13401968#2" type="car"/>
	<trip id="34" depart="0.00" departPos="69" from="13401968#2" to="13401968#2" type="car"/>
	<trip id="35" depart="0.00" departPos="6" from="13401968#3" to="13401968#3" type="car"/>
	<trip id="36" depart="0.00" departPos="31" from="13401968#3" to="13401968#3" type="car"/>
	<trip id="37" depart="0.00" departPos="56" from="13401968#3" to="13401968#3" type="car"/>
	<trip id="38" depart="0.00" departPos="81" from="13401968#3" to="13401968#3" type="car"/>
	<trip id="39" depart="0.00" departPos="19" from="-13450234#4" to="-13450234#4" type="car"/>
	<trip id="40" depart="0.00" departPos="44" from="-13450234#4" to="-13450234#4" type="car"/>
	<trip id="41" depart="0.00" departPos="69" from="-13450234#4" to="-13450234#4" type="car"/>
	<trip id="42" depart="0.00" departPos="94" from="-13450234#4" to="-13450234#4" type="car"/>
	<trip id="43" depart="0.00" departPos="119" from="-13450234#4" to="-13450234#4" type="car"/>
	<trip id="44" depart="0.00" departPos="144" from="-13450234#4" to="-13450234#4" type="car"/>
	<trip id="45" depart="0.00" departPos="169" from="-13450234#4" to="-13450234#4" type="car"/>
	<trip id="46" depart="0.00" departPos="94" from="13396449#5" to="13396449#5" type="car"/>
	<trip id="47" depart="0.00" departPos="119" from="13396449#5" to="13396449#5" type="car"/>
	<trip id="48" depart="0.00" departPos="144" from="13396449#5" to="13396449#5" type="car"/>
	<trip id="49" depart="0.00" departPos="169" from="13396449#5" to="13396449#5" type="car"/>
	<trip id="50" depart="0.00" departPos="6" from="398348655" to="398348655" type="car"/>
	<trip id="51" depart="0.00" departPos="31" from="398348655" to="398348655" type="car"/>
	<trip id="52" depart="0.00" departPos="56" from="398348655" to="398348655" type="car"/>
	<trip id="53" depart="0.00" departPos="11" from="398339752" to="398339752" type="car"/>
	<trip id="54" depart="0.00" departPos="93" from="-13450234#5" to="-13450234#5" type="car"/>
	<trip id="55" depart="0.00" departPos="118" from="-13450234#5" to="-13450234#5" type="car"/>
	<trip id="56" depart="0.00" departPos="143" from="-13450234#5" to="-13450234#5" type="car"/>
	<trip id="57" depart="0.00" departPos="168" from="-13450234#5" to="-13450234#5" type="car"/>
	<trip id="58" depart="0.00" departPos="92" from="13445352#5" to="13445352#5" type="car"/>
	<trip id="59" depart="0.00" departPos="117" from="13445352#5" to="13445352#5" type="car"/>
	<trip id="60" depart="0.00" departPos="142" from="13445352#5" to="13445352#5" type="car"/>
	<trip id="61" depart="0.00" departPos="167" from="13445352#5" to="13445352#5" type="car"/>
	<trip id="62" depart="0.00" departPos="7" from="-398339753" to="-398339753" type="car"/>
	<trip id="63" depart="0.00" departPos="4" from="-398339754" to="-398339754" type="car"/>
	<trip id="64" depart="0.00" departPos="29" from="-398339754" to="-398339754" type="car"/>
	<trip id="65" depart="0.00" departPos="94" from="-13386030#4" to="-13386030#4" type="car"/>
	<trip id="66" depart="0.00" departPos="119" from="-13386030#4" to="-13386030#4" type="car"/>
	<trip id="67" depart="0.00" departPos="144" from="-13386030#4" to="-13386030#4" type="car"/>
	<trip id="68" depart="0.00" departPos="169" from="-13386030#4" to="-13386030#4" type="car"/>
	<trip id="69" depart="0.00" departPos="6" from="-13386030#3" to="-13386030#3" type="car"/>
	<trip id="70" depart="0.00" departPos="31" from="-13386030#3" to="-13386030#3" type="car"/>
	<trip id="71" depart="0.00" departPos="56" from="-13386030#3" to="-13386030#3" type="car"/>
	<trip id="72" depart="0.00" departPos="81" from="-13386030#3" to="-13386030#3" type="car"/>
	<trip id="73" depart="0.00" departPos="106" from="-13386030#3" to="-13386030#3" type="car"/>
	<trip id="74" depart="0.00" departPos="131" from="-13386030#3" to="-13386030#3" type="car"/>
	<trip id="75" depart="0.00" departPos="156" from="-13386030#3" to="-13386030#3" type="car"/>
	<trip id="76" depart="0.00" departPos="181" from="-13386030#3" to="-13386030#3" type="car"/>
	<trip id="77" depart="0.00" departPos="19" from="-13386030#2" to="-13386030#2" type="car"/>
	<trip id="78" depart="0.00" departPos="44" from="-13386030#2" to="-13386030#2" type="car"/>
	<trip id="79" depart="0.00" departPos="69" from="-13386030#2" to="-13386030#2" type="car"/>
	<trip id="80" depart="0.00" departPos="94" from="-13386030#2" to="-13386030#2" type="car"/>
	<trip id="81" depart="0.00" departPos="119" from="-13386030#2" to="-13386030#2" type="car"/>
	<trip id="82" depart="0.00" departPos="144" from="-13386030#2" to="-13386030#2" type="car"/>
	<trip id="83" depart="0.00" departPos="169" from="-13386030#2" to="-13386030#2" type="car"/>
	<trip id="84" depart="0.00" departPos="10" from="-398333303" to="-398333303" type="car"/>
	<trip id="85" depart="0.00" departPos="16" from="-398333308#1" to="-398333308#1" type="car"/>
	<trip id="86" depart="0.00" departPos="41" from="-398333308#1" to="-398333308#1" type="car"/>
	<trip id="87" depart="0.00" departPos="66" from="-398333308#1" to="-398333308#1" type="car"/>
	<trip id="88" depart="0.00" departPos="22" from="13445352#2" to="13445352#2" type="car"/>
	<trip id="89" depart="0.00" departPos="47" from="13445352#2" to="13445352#2" type="car"/>
	<trip id="90" depart="0.00" departPos="72" from="13445352#2" to="13445352#2" type="car"/>
	<trip id="91" depart="0.00" departPos="97" from="13445352#2" to="13445352#2" type="car"/>
	<trip id="92" depart="0.00" departPos="122" from="13445352#2" to="13445352#2" type="car"/>
	<trip id="93" depart="0.00" departPos="147" from="13445352#2" to="13445352#2" type="car"/>
	<trip id="94" depart="0.00" departPos="172" from="13445352#2" to="13445352#2" type="car"/>
	<trip id="95" depart="0.00" departPos="91" from="-13445352#1" to="-13445352#1" type="car"/>
	<trip id="96" depart="0.00" departPos="116" from="-13445352#1" to="-13445352#1" type="car"/>
	<trip id="97" depart="0.00" departPos="141" from="-13445352#1" to="-13445352#1" type="car"/>
	<trip id="98" depart="0.00" departPos="166" from="-13445352#1" to="-13445352#1" type="car"/>
	<trip id="99" depart="0.00" departPos="45" from="13394575#1" to="13394575#1" type="car"/>
	<trip id="100" depart="0.00" departPos="70" from="13394575#1" to="13394575#1" type="car"/>
	<trip id="101" depart="0.00" departPos="5" from="13386030#1" to="13386030#1" type="car"/>
	<trip id="102" depart="0.00" departPos="30" from="13386030#1" to="13386030#1" type="car"/>
	<trip id="103" depart="0.00" departPos="55" from="13386030#1" to="13386030#1" type="car"/>
	<trip id="104" depart="0.00" departPos="80" from="13386030#1" to="13386030#1" type="car"/>
	<trip id="105" depart="0.00" departPos="105" from="13386030#1" to="13386030#1" type="car"/>
	<trip id="106" depart="0.00" departPos="130" from="13386030#1" to="13386030#1" type="car"/>
	<trip id="107" depart="0.00" departPos="155" from="13386030#1" to="13386030#1" type="car"/>
	<trip id="108" depart="0.00" departPos="180" from="13386030#1" to="13386030#1" type="car"/>
	<trip id="109" depart="0.00" departPos="43" from="13350730#2" to="13350730#2" type="car"/>
	<trip id="110" depart="0.00" departPos="68" from="13350730#2" to="13350730#2" type="car"/>
	<trip id="111" depart="0.00" departPos="6" from="-13396449#2" to="-13396449#2" type="car"/>
	<trip id="112" depart="0.00" departPos="31" from="-13396449#2" to="-13396449#2" type="car"/>
	<trip id="113" depart="0.00" departPos="56" from="-13396449#2" to="-13396449#2" type="car"/>
	<trip id="114" depart="0.00" departPos="81" from="-13396449#2" to="-13396449#2" type="car"/>
	<trip id="115" depart="0.00" departPos="106" from="-13396449#2" to="-13396449#2" type="car"/>
	<trip id="116" depart="0.00" departPos="131" from="-13396449#2" to="-13396449#2" type="car"/>
	<trip id="117" depart="0.00" departPos="156" from="-13396449#2" to="-13396449#2" type="car"/>
	<trip id="118" depart="0.00" departPos="181" from="-13396449#2" to="-13396449#2" type="car"/>
	<trip id="119" depart="0.00" departPos="22" from="-398534304#0" to="-398534304#0" type="car"/>
	<trip id="120" depart="0.00" departPos="47" from="-398534304#0" to="-398534304#0" type="car"/>
	<trip id="121" depart="0.00" departPos="2" from="-398333296" to="-398333296" type="car"/>
	<trip id="122" depart="0.00" departPos="91" from="-13396449#1" to="-13396449#1" type="car"/>
	<trip id="123" depart="0.00" departPos="116" from="-13396449#1" to="-13396449#1" type="car"/>
	<trip id="124" depart="0.00" departPos="141" from="-13396449#1" to="-13396449#1" type="car"/>
	<trip id="125" depart="0.00" departPos="166" from="-13396449#1" to="-13396449#1" type="car"/>
	<trip id="126" depart="0.00" departPos="44" from="122050710#2" to="122050710#2" type="car"/>
	<trip id="127" depart="0.00" departPos="69" from="122050710#2" to="122050710#2" type="car"/>
	<trip id="128" depart="0.00" departPos="6" from="-13396449#3" to="-13396449#3" type="car"/>
	<trip id="129" depart="0.00" departPos="31" from="-13396449#3" to="-13396449#3" type="car"/>
	<trip id="130" depart="0.00" departPos="56" from="-13396449#3" to="-13396449#3" type="car"/>
	<trip id="131" depart="0.00" departPos="81" from="-13396449#3" to="-13396449#3" type="car"/>
	<trip id="132" depart="0.00" departPos="106" from="-13396449#3" to="-13396449#3" type="car"/>
	<trip id="133" depart="0.00" departPos="131" from="-13396449#3" to="-13396449#3" type="car"/>
	<trip id="134" depart="0.00" departPos="156" from="-13396449#3" to="-13396449#3" type="car"/>
	<trip id="135" depart="0.00" departPos="181" from="-13396449#3" to="-13396449#3" type="car"/>
	<trip id="136" depart="0.00" departPos="43" from="122050710#3" to="122050710#3" type="car"/>
	<trip id="137" depart="0.00" departPos="68" from="122050710#3" to="122050710#3" type="car"/>
	<trip id="138" depart="0.00" departPos="6" from="-13450234#3" to="-13450234#3" type="car"/>
	<trip id="139" depart="0.00" departPos="31" from="-13450234#3" to="-13450234#3" type="car"/>
	<trip id="140" depart="0.00" departPos="56" from="-13450234#3" to="-13450234#3" type="car"/>
	<trip id="141" depart="0.00" departPos="81" from="-13450234#3" to="-13450234#3" type="car"/>
	<trip id="142" depart="0.00" departPos="106" from="-13450234#3" to="-13450234#3" type="car"/>
	<trip id="143" depart="0.00" departPos="131" from="-13450234#3" to="-13450234#3" type="car"/>
	<trip id="144" depart="0.00" departPos="156" from="-13450234#3" to="-13450234#3" type="car"/>
	<trip id="145" depart="0.00" departPos="181" from="-13450234#3" to="-13450234#3" type="car"/>
	<trip id="146" depart="0.00" departPos="19" from="-13350730#3" to="-13350730#3" type="car"/>
	<trip id="147" depart="0.00" departPos="44" from="-13350730#3" to="-13350730#3" type="car"/>
	<trip id="148" depart="0.00" departPos="69" from="-13350730#3" to="-13350730#3" type="car"/>
	<trip id="149" depart="0.00" departPos="92" from="-13450234#2" to="-13450234#2" type="car"/>
	<trip id="150" depart="0.00" departPos="117" from="-13450234#2" to="-13450234#2" type="car"/>
	<trip id="151" depart="0.00" departPos="142" from="-13450234#2" to="-13450234#2" type="car"/>
	<trip id="152" depart="0.00" departPos="167" from="-13450234#2" to="-13450234#2" type="car"/>
	<trip id="153" depart="0.00" departPos="8" from="398534304#2" to="398534304#2" type="car"/>
	<trip id="154" depart="0.00" departPos="33" from="398534304#2" to="398534304#2" type="car"/>
	<trip id="155" depart="0.00" departPos="58" from="398534304#2" to="398534304#2" type="car"/>
	<trip id="156" depart="0.00" departPos="83" from="398534304#2" to="398534304#2" type="car"/>
	<trip id="157" depart="0.00" departPos="94" from="13396449#4" to="13396449#4" type="car"/>
	<trip id="158" depart="0.00" departPos="119" from="13396449#4" to="13396449#4" type="car"/>
	<trip id="159" depart="0.00" departPos="144" from="13396449#4" to="13396449#4" type="car"/>
	<trip id="160" depart="0.00" departPos="169" from="13396449#4" to="13396449#4" type="car"/>
	<trip id="161" depart="0.00" departPos="42" from="122050710#4" to="122050710#4" type="car"/>
	<trip id="162" depart="0.00" departPos="67" from="122050710#4" to="122050710#4" type="car"/>
	<trip id="163" depart="0.00" departPos="8" from="122050710#5" to="122050710#5" type="car"/>
	<trip id="164" depart="0.00" departPos="33" from="122050710#5" to="122050710#5" type="car"/>
	<trip id="165" depart="0.00" departPos="20" from="122050710#6" to="122050710#6" type="car"/>
	<trip id="166" depart="0.00" departPos="93" from="-13447690#3" to="-13447690#3" type="car"/>
	<trip id="167" depart="0.00" departPos="118" from="-13447690#3" to="-13447690#3" type="car"/>
	<trip id="168" depart="0.00" departPos="143" from="-13447690#3" to="-13447690#3" type="car"/>
	<trip id="169" depart="0.00" departPos="168" from="-13447690#3" to="-13447690#3" type="car"/>
	<trip id="170" depart="0.00" departPos="6" from="-13447690#2" to="-13447690#2" type="car"/>
	<trip id="171" depart="0.00" departPos="31" from="-13447690#2" to="-13447690#2" type="car"/>
	<trip id="172" depart="0.00" departPos="56" from="-13447690#2" to="-13447690#2" type="car"/>
	<trip id="173" depart="0.00" departPos="81" from="-13447690#2" to="-13447690#2" type="car"/>
	<trip id="174" depart="0.00" departPos="106" from="-13447690#2" to="-13447690#2" type="car"/>
	<trip id="175" depart="0.00" departPos="131" from="-13447690#2" to="-13447690#2" type="car"/>
	<trip id="176" depart="0.00" departPos="156" from="-13447690#2" to="-13447690#2" type="car"/>
	<trip id="177" depart="0.00" departPos="181" from="-13447690#2" to="-13447690#2" type="car"/>
	<trip id="178" depart="0.00" departPos="43" from="-13350730#4" to="-13350730#4" type="car"/>
	<trip id="179" depart="0.00" departPos="68" from="-13350730#4" to="-13350730#4" type="car"/>
	<trip id="180" depart="0.00" departPos="94" from="13447690#4" to="13447690#4" type="car"/>
	<trip id="181" depart="0.00" departPos="119" from="13447690#4" to="13447690#4" type="car"/>
	<trip id="182" depart="0.00" departPos="144" from="13447690#4" to="13447690#4" type="car"/>
	<trip id="183" depart="0.00" departPos="169" from="13447690#4" to="13447690#4" type="car"/>
	<trip id="184" depart="0.00" departPos="6" from="-13401968#4" to="-13401968#4" type="car"/>
	<trip id="185" depart="0.00" departPos="31" from="-13401968#4" to="-13401968#4" type="car"/>
	<trip id="186" depart="0.00" departPos="56" from="-13401968#4" to="-13401968#4" type="car"/>
	<trip id="187" depart="0.00" departPos="81" from="-13401968#4" to="-13401968#4" type="car"/>
	<trip id="188" depart="0.00" departPos="19" from="13401968#5" to="13401968#5" type="car"/>
	<trip id="189" depart="0.00" departPos="92" from="13447690#5" to="13447690#5" type="car"/>
	<trip id="190" depart="0.00" departPos="117" from="13447690#5" to="13447690#5" type="car"/>
	<trip id="191" depart="0.00" departPos="142" from="13447690#5" to="13447690#5" type="car"/>
	<trip id="192" depart="0.00" departPos="167" from="13447690#5" to="13447690#5" type="car"/>
	<trip id="193" depart="0.00" departPos="8" from="-398534313" to="-398534313" type="car"/>
	<trip id="194" depart="0.00" departPos="20" from="-398339755" to="-398339755" type="car"/>
	<trip id="195" depart="0.00" departPos="16" from="382411982#1" to="382411982#1" type="car"/>
	<trip id="196" depart="0.00" departPos="16" from="-13450234#6" to="-13450234#6" type="car"/>
	<trip id="197" depart="0.00" departPos="18" from="13450234#7" to="13450234#7" type="car"/>
	<trip id="198" depart="0.00" departPos="7" from="13433275#2" to="13433275#2" type="car"/>
	<trip id="199" depart="0.00" departPos="32" from="13433275#2" to="13433275#2" type="car"/>
	<trip id="200" depart="0.00" departPos="57" from="13433275#2" to="13433275#2" type="car"/>
	<trip id="201" depart="0.00" departPos="0" from="-13418808#3" to="-13418808#3" type="car"/>
	<trip id="202" depart="0.00" departPos="25" from="-13418808#3" to="-13418808#3" type="car"/>
	<trip id="203" depart="0.00" departPos="50" from="-13418808#3" to="-13418808#3" type="car"/>
	<trip id="204" depart="0.00" departPos="75" from="-13418808#3" to="-13418808#3" type="car"/>
	<trip id="205" depart="0.00" departPos="100" from="-13418808#3" to="-13418808#3" type="car"/>
	<trip id="206" depart="0.00" departPos="125" from="-13418808#3" to="-13418808#3" type="car"/>
	<trip id="207" depart="0.00" departPos="2" from="-13418808#2" to="-13418808#2" type="car"/>
	<trip id="208" depart="0.00" departPos="27" from="-13418808#2" to="-13418808#2" type="car"/>
	<trip id="209" depart="0.00" departPos="52" from="-13418808#2" to="-13418808#2" type="car"/>
	<trip id="210" depart="0.00" departPos="77" from="-13418808#2" to="-13418808#2" type="car"/>
	<trip id="211" depart="0.00" departPos="7" from="13396428#0" to="13396428#0" type="car"/>
	<trip id="212" depart="0.00" departPos="32" from="13396428#0" to="13396428#0" type="car"/>
	<trip id="213" depart="0.00" departPos="57" from="13396428#0" to="13396428#0" type="car"/>
	<trip id="214" depart="0.00" departPos="82" from="13396428#0" to="13396428#0" type="car"/>
	<trip id="215" depart="0.00" departPos="5" from="13315627#2" to="13315627#2" type="car"/>
	<trip id="216" depart="0.00" departPos="30" from="13315627#2" to="13315627#2" type="car"/>
	<trip id="217" depart="0.00" departPos="55" from="13315627#2" to="13315627#2" type="car"/>
	<trip id="218" depart="0.00" departPos="12" from="13315627#3" to="13315627#3" type="car"/>
	<trip id="219" depart="0.00" departPos="37" from="13315627#3" to="13315627#3" type="car"/>
	<trip id="220" depart="0.00" departPos="62" from="13315627#3" to="13315627#3" type="car"/>
	<trip id="221" depart="0.00" departPos="21" from="13447695#2" to="13447695#2" type="car"/>
	<trip id="222" depart="0.00" departPos="46" from="13447695#2" to="13447695#2" type="car"/>
	<trip id="223" depart="0.00" departPos="71" from="13447695#2" to="13447695#2" type="car"/>
	<trip id="224" depart="0.00" departPos="96" from="13447695#2" to="13447695#2" type="car"/>
	<trip id="225" depart="0.00" departPos="121" from="13447695#2" to="13447695#2" type="car"/>
	<trip id="226" depart="0.00" departPos="146" from="13447695#2" to="13447695#2" type="car"/>
	<trip id="227" depart="0.00" departPos="171" from="13447695#2" to="13447695#2" type="car"/>
	<trip id="228" depart="0.00" departPos="7" from="13364990#7" to="13364990#7" type="car"/>
	<trip id="229" depart="0.00" departPos="32" from="13364990#7" to="13364990#7" type="car"/>
	<trip id="230" depart="0.00" departPos="21" from="13364990#8" to="13364990#8" type="car"/>
	<trip id="231" depart="0.00" departPos="17" from="13364990#10" to="13364990#10" type="car"/>
	<trip id="232" depart="0.00" departPos="7" from="13364990#11" to="13364990#11" type="car"/>
	<trip id="233" depart="0.00" departPos="32" from="13364990#11" to="13364990#11" type="car"/>
	<trip id="234" depart="0.00" departPos="57" from="13364990#11" to="13364990#11" type="car"/>
	<trip id="235" depart="0.00" departPos="82" from="13364990#11" to="13364990#11" type="car"/>
	<trip id="236" depart="0.00" departPos="107" from="13364990#11" to="13364990#11" type="car"/>
	<trip id="237" depart="0.00" departPos="132" from="13364990#11" to="13364990#11" type="car"/>
	<trip id="238" depart="0.00" departPos="6" from="13364990#12" to="13364990#12" type="car"/>
	<trip id="239" depart="0.00" departPos="31" from="13364990#12" to="13364990#12" type="car"/>
	<trip id="240" depart="0.00" departPos="56" from="13364990#12" to="13364990#12" type="car"/>
	<trip id="241" depart="0.00" departPos="81" from="13364990#12" to="13364990#12" type="car"/>
	<trip id="242" depart="0.00" departPos="106" from="13364990#12" to="13364990#12" type="car"/>
	<trip id="243" depart="0.00" departPos="131" from="13364990#12" to="13364990#12" type="car"/>
	<trip id="244" depart="0.00" departPos="156" from="13364990#12" to="13364990#12" type="car"/>
	<trip id="245" depart="0.00" departPos="19" from="-382845855" to="-382845855" type="car"/>
	<trip id="246" depart="0.00" departPos="75" from="13468719#0" to="13468719#0" type="car"/>
	<trip id="247" depart="0.00" departPos="100" from="13468719#0" to="13468719#0" type="car"/>
	<trip id="248" depart="0.00" departPos="125" from="13468719#0" to="13468719#0" type="car"/>
	<trip id="249" depart="0.00" departPos="150" from="13468719#0" to="13468719#0" type="car"/>
	<trip id="250" depart="0.00" departPos="41" from="382845857" to="382845857" type="car"/>
	<trip id="251" depart="0.00" departPos="66" from="382845857" to="382845857" type="car"/>
	<trip id="252" depart="0.00" departPos="8" from="382845943" to="382845943" type="car"/>
	<trip id="253" depart="0.00" departPos="33" from="382845943" to="382845943" type="car"/>
	<trip id="254" depart="0.00" departPos="58" from="382845943" to="382845943" type="car"/>
	<trip id="255" depart="0.00" departPos="22" from="398538504" to="398538504" type="car"/>
	<trip id="256" depart="0.00" departPos="24" from="351965787#0" to="351965787#0" type="car"/>
	<trip id="257" depart="0.00" departPos="14" from="-13315627#5" to="-13315627#5" type="car"/>
	<trip id="258" depart="0.00" departPos="83" from="398538534" to="398538534" type="car"/>
	<trip id="259" depart="0.00" departPos="108" from="398538534" to="398538534" type="car"/>
	<trip id="260" depart="0.00" departPos="133" from="398538534" to="398538534" type="car"/>
	<trip id="261" depart="0.00" departPos="158" from="398538534" to="398538534" type="car"/>
	<trip id="262" depart="0.00" departPos="37" from="-13447695#3" to="-13447695#3" type="car"/>
	<trip id="263" depart="0.00" departPos="62" from="-13447695#3" to="-13447695#3" type="car"/>
	<trip id="264" depart="0.00" departPos="12" from="-13364990#6" to="-13364990#6" type="car"/>
	<trip id="265" depart="0.00" departPos="37" from="-13364990#6" to="-13364990#6" type="car"/>
	<trip id="266" depart="0.00" departPos="62" from="-13364990#6" to="-13364990#6" type="car"/>
	<trip id="267" depart="0.00" departPos="17" from="-13315627#1" to="-13315627#1" type="car"/>
	<trip id="268" depart="0.00" departPos="17" from="-13418808#1" to="-13418808#1" type="car"/>
	<trip id="269" depart="0.00" departPos="95" from="-13433275#1" to="-13433275#1" type="car"/>
	<trip id="270" depart="0.00" departPos="120" from="-13433275#1" to="-13433275#1" type="car"/>
	<trip id="271" depart="0.00" departPos="145" from="-13433275#1" to="-13433275#1" type="car"/>
	<trip id="272" depart="0.00" departPos="170" from="-13433275#1" to="-13433275#1" type="car"/>
	<trip id="273" depart="0.00" departPos="5" from="13386030#8" to="13386030#8" type="car"/>
	<trip id="274" depart="0.00" departPos="30" from="13386030#8" to="13386030#8" type="car"/>
	<trip id="275" depart="0.00" departPos="55" from="13386030#8" to="13386030#8" type="car"/>
	<trip id="276" depart="0.00" departPos="142" from="-13433275#0" to="-13433275#0" type="car"/>
	<trip id="277" depart="0.00" departPos="167" from="-13433275#0" to="-13433275#0" type="car"/>
	<trip id="278" depart="0.00" departPos="192" from="-13433275#0" to="-13433275#0" type="car"/>
	<trip id="279" depart="0.00" departPos="217" from="-13433275#0" to="-13433275#0" type="car"/>
	<trip id="280" depart="0.00" departPos="242" from="-13433275#0" to="-13433275#0" type="car"/>
	<trip id="281" depart="0.00" departPos="267" from="-13433275#0" to="-13433275#0" type="car"/>
	<trip id="282" depart="0.00" departPos="79" from="13446476#1" to="13446476#1" type="car"/>
	<trip id="283" depart="0.00" departPos="104" from="13446476#1" to="13446476#1" type="car"/>
	<trip id="284" depart="0.00" departPos="129" from="13446476#1" to="13446476#1" type="car"/>
	<trip id="285" depart="0.00" departPos="154" from="13446476#1" to="13446476#1" type="car"/>
	<trip id="286" depart="0.00" departPos="21" from="13458644#0" to="13458644#0" type="car"/>
	<trip id="287" depart="0.00" departPos="46" from="13458644#0" to="13458644#0" type="car"/>
	<trip id="288" depart="0.00" departPos="71" from="13458644#0" to="13458644#0" type="car"/>
	<trip id="289" depart="0.00" departPos="96" from="13458644#0" to="13458644#0" type="car"/>
	<trip id="290" depart="0.00" departPos="121" from="13458644#0" to="13458644#0" type="car"/>
	<trip id="291" depart="0.00" departPos="146" from="13458644#0" to="13458644#0" type="car"/>
	<trip id="292" depart="0.00" departPos="171" from="13458644#0" to="13458644#0" type="car"/>
	<trip id="293" depart="0.00" departPos="13" from="13458644#1" to="13458644#1" type="car"/>
	<trip id="294" depart="0.00" departPos="38" from="13458644#1" to="13458644#1" type="car"/>
	<trip id="295" depart="0.00" departPos="63" from="13458644#1" to="13458644#1" type="car"/>
	<trip id="296" depart="0.00" departPos="88" from="13458644#1" to="13458644#1" type="car"/>
	<trip id="297" depart="0.00" departPos="113" from="13458644#1" to="13458644#1" type="car"/>
	<trip id="298" depart="0.00" departPos="138" from="13458644#1" to="13458644#1" type="car"/>
	<trip id="299" depart="0.00" departPos="163" from="13458644#1" to="13458644#1" type="car"/>
	<trip id="300" depart="0.00" departPos="33" from="13315622#1" to="13315622#1" type="car"/>
	<trip id="301" depart="0.00" departPos="58" from="13315622#1" to="13315622#1" type="car"/>
	<trip id="302" depart="0.00" departPos="90" from="13360303#0" to="13360303#0" type="car"/>
	<trip id="303" depart="0.00" departPos="115" from="13360303#0" to="13360303#0" type="car"/>
	<trip id="304" depart="0.00" departPos="140" from="13360303#0" to="13360303#0" type="car"/>
	<trip id="305" depart="0.00" departPos="165" from="13360303#0" to="13360303#0" type="car"/>
	<trip id="306" depart="0.00" departPos="47" from="13446476#2" to="13446476#2" type="car"/>
	<trip id="307" depart="0.00" departPos="72" from="13446476#2" to="13446476#2" type="car"/>
	<trip id="308" depart="0.00" departPos="3" from="13428018#0" to="13428018#0" type="car"/>
	<trip id="309" depart="0.00" departPos="28" from="13428018#0" to="13428018#0" type="car"/>
	<trip id="310" depart="0.00" departPos="53" from="13428018#0" to="13428018#0" type="car"/>
	<trip id="311" depart="0.00" departPos="78" from="13428018#0" to="13428018#0" type="car"/>
	<trip id="312" depart="0.00" departPos="0" from="13428018#1" to="13428018#1" type="car"/>
	<trip id="313" depart="0.00" departPos="25" from="13428018#1" to="13428018#1" type="car"/>
	<trip id="314" depart="0.00" departPos="50" from="13428018#1" to="13428018#1" type="car"/>
	<trip id="315" depart="0.00" departPos="75" from="13428018#1" to="13428018#1" type="car"/>
	<trip id="316" depart="0.00" departPos="100" from="13428018#1" to="13428018#1" type="car"/>
	<trip id="317" depart="0.00" departPos="16" from="13446476#3" to="13446476#3" type="car"/>